
     RDKit          3D

 25 27  0  0  0  0  0  0  0  0999 V2000
    8.0031   29.8385   -6.7851 C   0  0  0  0  0  0  0  0  0  0  0  0
    8.2934   30.3771   -5.4209 C   0  0  0  0  0  0  0  0  0  0  0  0
    7.0432   30.3721   -4.5495 C   0  0  1  0  0  0  0  0  0  0  0  0
    5.9425   29.8726   -5.2052 O   0  0  0  0  0  0  0  0  0  0  0  0
    4.7759   30.5621   -5.4688 C   0  0  0  0  0  0  0  0  0  0  0  0
    4.5773   31.8957   -5.2079 C   0  0  0  0  0  0  0  0  0  0  0  0
    3.3666   32.4755   -5.5157 C   0  0  0  0  0  0  0  0  0  0  0  0
    3.1498   33.8376   -5.2545 O   0  0  0  0  0  0  0  0  0  0  0  0
    2.3689   31.7156   -6.0806 C   0  0  0  0  0  0  0  0  0  0  0  0
    2.5481   30.3755   -6.3504 C   0  0  0  0  0  0  0  0  0  0  0  0
    1.5468   29.6979   -6.8958 O   0  0  0  0  0  0  0  0  0  0  0  0
    1.7080   28.4106   -7.1591 C   0  0  0  0  0  0  0  0  0  0  0  0
    0.6771   27.6759   -7.7301 C   0  0  0  0  0  0  0  0  0  0  0  0
   -0.4993   28.3348   -8.0051 O   0  0  0  0  0  0  0  0  0  0  0  0
    0.8428   26.3398   -8.0039 C   0  0  0  0  0  0  0  0  0  0  0  0
    2.0269   25.7112   -7.7184 C   0  0  0  0  0  0  0  0  0  0  0  0
    3.0796   26.4107   -7.1481 C   0  0  0  0  0  0  0  0  0  0  0  0
    2.8802   27.7381   -6.8891 C   0  0  0  0  0  0  0  0  0  0  0  0
    3.9327   28.4476   -6.3164 C   0  0  0  0  0  0  0  0  0  0  0  0
    5.0337   27.9040   -6.0406 O   0  0  0  0  0  0  0  0  0  0  0  0
    3.7463   29.7932   -6.0479 C   0  0  0  0  0  0  0  0  0  0  0  0
    7.3429   29.5255   -3.3582 C   0  0  0  0  0  0  0  0  0  0  0  0
    8.0814   29.9613   -2.4629 O   0  0  0  0  0  0  0  0  0  0  0  0
    6.7898   28.2643   -3.2724 O   0  0  0  0  0  0  0  0  0  0  0  0
    6.8908   27.4753   -2.1159 C   0  0  0  0  0  0  0  0  0  0  0  0
  1  2  1  0
  3  2  1  6
  3  4  1  0
  4  5  1  0
  5  6  2  0
  6  7  1  0
  7  8  1  0
  7  9  2  0
  9 10  1  0
 10 11  1  0
 11 12  1  0
 12 13  2  0
 13 14  1  0
 13 15  1  0
 15 16  2  0
 16 17  1  0
 17 18  2  0
 18 19  1  0
 19 20  2  0
 19 21  1  0
  3 22  1  0
 22 23  2  0
 22 24  1  0
 24 25  1  0
 21  5  1  0
 21 10  2  0
 18 12  1  0
M  END
$$$$
