
     RDKit          3D

 21 22  0  0  0  0  0  0  0  0999 V2000
  146.1972  144.2028  146.5878 C   0  0  0  0  0  0  0  0  0  0  0  0
  147.1187  145.1773  147.0896 N   0  0  0  0  0  4  0  0  0  0  0  0
  147.0761  145.1834  148.5423 C   0  0  0  0  0  0  0  0  0  0  0  0
  146.8954  146.5194  146.6546 C   0  0  0  0  0  0  0  0  0  0  0  0
  148.0319  147.4401  147.0706 C   0  0  0  0  0  0  0  0  0  0  0  0
  147.8184  148.8308  146.5686 C   0  0  0  0  0  0  0  0  0  0  0  0
  148.9253  149.6660  146.9363 N   0  0  0  0  0  0  0  0  0  0  0  0
  148.8894  150.9975  146.3954 C   0  0  0  0  0  0  0  0  0  0  0  0
  150.1914  151.6635  146.7836 C   0  0  0  0  0  0  0  0  0  0  0  0
  150.3292  152.7821  147.5495 C   0  0  0  0  0  0  0  0  0  0  0  0
  151.7047  153.0200  147.6353 C   0  0  0  0  0  0  0  0  0  0  0  0
  152.3345  152.0434  146.9237 C   0  0  0  0  0  0  0  0  0  0  0  0
  153.7569  151.8280  146.6945 C   0  0  0  0  0  0  0  0  0  0  0  0
  154.6127  152.9434  146.7617 C   0  0  0  0  0  0  0  0  0  0  0  0
  155.9706  152.8522  146.5734 C   0  0  0  0  0  0  0  0  0  0  0  0
  156.5661  151.6406  146.3052 C   0  0  0  0  0  0  0  0  0  0  0  0
  158.3096  151.5224  146.0656 Cl  0  0  0  0  0  0  0  0  0  0  0  0
  155.7487  150.5492  146.2372 C   0  0  0  0  0  0  0  0  0  0  0  0
  154.3563  150.6400  146.4302 C   0  0  0  0  0  0  0  0  0  0  0  0
  153.3965  149.1792  146.3359 Cl  0  0  0  0  0  0  0  0  0  0  0  0
  151.3698  151.2631  146.4395 O   0  0  0  0  0  0  0  0  0  0  0  0
  1  2  1  0
  2  3  1  0
  2  4  1  0
  4  5  1  0
  5  6  1  0
  6  7  1  0
  7  8  1  0
  8  9  1  0
  9 10  2  0
 10 11  1  0
 11 12  2  0
 12 13  1  0
 13 14  2  0
 14 15  1  0
 15 16  2  0
 16 17  1  0
 16 18  1  0
 18 19  2  0
 19 20  1  0
 12 21  1  0
 21  9  1  0
 19 13  1  0
M  CHG  1   2   1
M  END
$$$$
