
     RDKit          3D

 21 22  0  0  0  0  0  0  0  0999 V2000
  153.1038  155.5415  148.2610 C   0  0  0  0  0  0  0  0  0  0  0  0
  152.2841  154.6725  147.4715 N   0  0  0  0  0  4  0  0  0  0  0  0
  151.2097  154.1396  148.2923 C   0  0  0  0  0  0  0  0  0  0  0  0
  152.9557  153.5593  146.8798 C   0  0  0  0  0  0  0  0  0  0  0  0
  152.0741  152.8464  145.8664 C   0  0  0  0  0  0  0  0  0  0  0  0
  152.8129  151.7433  145.1817 C   0  0  0  0  0  0  0  0  0  0  0  0
  152.1291  150.4966  145.3707 N   0  0  0  0  0  0  0  0  0  0  0  0
  152.6035  149.4120  144.5549 C   0  0  0  0  0  0  0  0  0  0  0  0
  151.6822  148.2385  144.8069 C   0  0  0  0  0  0  0  0  0  0  0  0
  151.7635  147.3560  145.8420 C   0  0  0  0  0  0  0  0  0  0  0  0
  150.7117  146.4527  145.6582 C   0  0  0  0  0  0  0  0  0  0  0  0
  150.0451  146.8245  144.5293 C   0  0  0  0  0  0  0  0  0  0  0  0
  148.8783  146.2243  143.8963 C   0  0  0  0  0  0  0  0  0  0  0  0
  148.3463  146.8575  142.7574 C   0  0  0  0  0  0  0  0  0  0  0  0
  147.2564  146.3717  142.0765 C   0  0  0  0  0  0  0  0  0  0  0  0
  146.6237  145.2201  142.4869 C   0  0  0  0  0  0  0  0  0  0  0  0
  145.2258  144.5945  141.6118 Cl  0  0  0  0  0  0  0  0  0  0  0  0
  147.1286  144.5944  143.5903 C   0  0  0  0  0  0  0  0  0  0  0  0
  148.2461  145.0903  144.2899 C   0  0  0  0  0  0  0  0  0  0  0  0
  148.8252  144.2068  145.6857 Cl  0  0  0  0  0  0  0  0  0  0  0  0
  150.6781  147.9018  144.0683 O   0  0  0  0  0  0  0  0  0  0  0  0
  1  2  1  0
  2  3  1  0
  2  4  1  0
  4  5  1  0
  5  6  1  0
  6  7  1  0
  7  8  1  0
  8  9  1  0
  9 10  2  0
 10 11  1  0
 11 12  2  0
 12 13  1  0
 13 14  2  0
 14 15  1  0
 15 16  2  0
 16 17  1  0
 16 18  1  0
 18 19  2  0
 19 20  1  0
 12 21  1  0
 21  9  1  0
 19 13  1  0
M  CHG  1   2   1
M  END
$$$$
