
     RDKit          3D

 22 24  0  0  0  0  0  0  0  0999 V2000
   29.6783   28.1768    3.0058 C   0  0  0  0  0  0  0  0  0  0  0  0
   30.0675   29.2587    3.9938 C   0  0  0  0  0  0  0  0  0  0  0  0
   29.7708   28.7784    5.3610 C   0  0  0  0  0  0  0  0  0  0  0  0
   28.2250   28.2673    6.0138 Cl  0  0  0  0  0  0  0  0  0  0  0  0
   30.9223   28.8008    6.0364 C   0  0  0  0  0  0  0  0  0  0  0  0
   32.0139   29.2657    5.2355 C   0  0  0  0  0  0  0  0  0  0  0  0
   33.4219   29.4057    5.6203 C   0  0  0  0  0  0  0  0  0  0  0  0
   34.3381   29.8660    4.7787 N   0  0  0  0  0  0  0  0  0  0  0  0
   35.6430   30.0238    5.1184 C   0  0  0  0  0  0  0  0  0  0  0  0
   36.5763   30.4931    4.1729 N   0  0  0  0  0  0  0  0  0  0  0  0
   36.1977   30.6876    2.7759 C   0  0  0  0  0  0  0  0  0  0  0  0
   35.9967   32.1467    2.4622 C   0  0  0  0  0  0  0  0  0  0  0  0
   37.0951   32.7174    1.8571 O   0  0  0  0  0  0  0  0  0  0  0  0
   36.0266   29.6924    6.3922 C   0  0  0  0  0  0  0  0  0  0  0  0
   37.3154   29.8183    6.8530 C   0  0  0  0  0  0  0  0  0  0  0  0
   37.6946   29.4861    8.1565 C   0  0  0  0  0  0  0  0  0  0  0  0
   36.7516   29.0132    9.0202 C   0  0  0  0  0  0  0  0  0  0  0  0
   35.4448   28.8765    8.5808 C   0  0  0  0  0  0  0  0  0  0  0  0
   35.0728   29.2034    7.3013 C   0  0  0  0  0  0  0  0  0  0  0  0
   33.8024   29.0757    6.8838 N   0  0  0  0  0  0  0  0  0  0  0  0
   31.5095   29.5351    4.0308 C   0  0  0  0  0  0  0  0  0  0  0  0
   32.3091   30.0346    2.9649 N   0  0  0  0  0  0  0  0  0  0  0  0
  1  2  1  0
  2  3  1  0
  3  4  1  0
  3  5  2  0
  5  6  1  0
  6  7  1  0
  7  8  2  0
  8  9  1  0
  9 10  1  0
 10 11  1  0
 11 12  1  0
 12 13  1  0
  9 14  2  0
 14 15  1  0
 15 16  2  0
 16 17  1  0
 17 18  2  0
 18 19  1  0
 19 20  2  0
  6 21  2  0
 21 22  1  0
 21  2  1  0
 20  7  1  0
 19 14  1  0
M  END
$$$$
