
     RDKit          3D

 24 26  0  0  0  0  0  0  0  0999 V2000
   36.1805   31.4075    7.9978 O   0  0  0  0  0  0  0  0  0  0  0  0
   35.2581   32.2361    7.3573 C   0  0  0  0  0  0  0  0  0  0  0  0
   35.8444   33.6162    7.3643 C   0  0  0  0  0  0  0  0  0  0  0  0
   35.7511   34.3349    8.5439 C   0  0  0  0  0  0  0  0  0  0  0  0
   36.2751   35.5920    8.5801 C   0  0  0  0  0  0  0  0  0  0  0  0
   36.8952   36.1726    7.4813 C   0  0  0  0  0  0  0  0  0  0  0  0
   37.4310   37.5476    7.5867 C   0  0  0  0  0  0  0  0  0  0  0  0
   36.5295   38.3964    8.2825 N   0  0  0  0  0  0  0  0  0  0  0  0
   35.8287   39.3227    7.4131 C   0  0  0  0  0  0  0  0  0  0  0  0
   35.0544   40.2733    8.2993 C   0  0  0  0  0  0  0  0  0  0  0  0
   35.9751   41.2423    8.8704 N   0  0  0  0  0  0  0  0  0  0  0  0
   36.0620   42.3448    7.9515 C   0  0  0  0  0  0  0  0  0  0  0  0
   34.9409   43.3108    8.0641 C   0  0  0  0  0  0  0  0  0  0  0  0
   34.7546   44.2574    7.0721 C   0  0  0  0  0  0  0  0  0  0  0  0
   33.7071   45.1783    7.1589 C   0  0  0  0  0  0  0  0  0  0  0  0
   32.8331   45.1782    8.2204 C   0  0  0  0  0  0  0  0  0  0  0  0
   31.7048   46.1276    8.3652 C   0  0  0  0  0  0  0  0  0  0  0  0
   31.3849   46.1804    9.7186 O   0  0  0  0  0  0  0  0  0  0  0  0
   33.0196   44.2355    9.2072 C   0  0  0  0  0  0  0  0  0  0  0  0
   34.0671   43.3170    9.1174 C   0  0  0  0  0  0  0  0  0  0  0  0
   37.2452   40.5850    9.1146 C   0  0  0  0  0  0  0  0  0  0  0  0
   37.0237   39.1002    9.4090 C   0  0  0  0  0  0  0  0  0  0  0  0
   36.9609   35.4139    6.3322 C   0  0  0  0  0  0  0  0  0  0  0  0
   36.4431   34.1428    6.2605 C   0  0  0  0  0  0  0  0  0  0  0  0
  1  2  1  0
  2  3  1  0
  3  4  2  0
  4  5  1  0
  5  6  2  0
  6  7  1  0
  7  8  1  0
  8  9  1  0
  9 10  1  0
 10 11  1  0
 11 12  1  0
 12 13  1  0
 13 14  2  0
 14 15  1  0
 15 16  2  0
 16 17  1  0
 17 18  1  0
 16 19  1  0
 19 20  2  0
 11 21  1  0
 21 22  1  0
  6 23  1  0
 23 24  2  0
 24  3  1  0
 22  8  1  0
 20 13  1  0
M  END
$$$$
