
     RDKit          3D

 17 17  0  0  0  0  0  0  0  0999 V2000
   43.3747   28.5846   15.7155 O   0  0  0  0  0  0  0  0  0  0  0  0
   44.6723   28.0884   15.5581 C   0  0  0  0  0  0  0  0  0  0  0  0
   45.6908   29.2131   15.6087 C   0  0  0  0  0  0  0  0  0  0  0  0
   45.7832   29.7039   16.9620 N   0  0  0  0  0  0  0  0  0  0  0  0
   46.1340   31.0662   17.1670 C   0  0  0  0  0  0  0  0  0  0  0  0
   47.1820   31.3339   17.8362 N   0  0  0  0  0  0  0  0  0  0  0  0
   47.1761   32.0060   19.0926 C   0  0  0  0  0  3  0  0  0  0  0  0
   48.0122   33.1457   19.0921 N   0  0  0  0  0  0  0  0  0  0  0  0
   48.5797   33.4261   20.3925 C   0  0  0  0  0  0  0  0  0  0  0  0
   47.6336   33.0723   21.5060 C   0  0  0  0  0  0  0  0  0  0  0  0
   47.8732   31.6498   21.9591 C   0  0  0  0  0  0  0  0  0  0  0  0
   47.4919   31.4865   23.3838 C   0  0  0  0  0  0  0  0  0  0  0  0
   48.0771   32.1534   24.3588 C   0  0  0  0  0  0  0  0  0  0  0  0
   49.6425   32.8795   24.0572 Cl  0  0  0  0  0  0  0  0  0  0  0  0
   47.3741   32.3549   25.9452 Cl  0  0  0  0  0  0  0  0  0  0  0  0
   47.0507   30.7440   21.1163 C   0  0  0  0  0  0  0  0  0  0  0  0
   46.3499   31.3978   20.0499 N   0  0  0  0  0  0  0  0  0  0  0  0
  1  2  1  0
  2  3  1  0
  3  4  1  0
  4  5  1  0
  5  6  2  3
  6  7  1  0
  7  8  1  0
  8  9  1  0
  9 10  1  0
 10 11  1  0
 11 12  1  0
 12 13  2  3
 13 14  1  0
 13 15  1  0
 11 16  1  0
 16 17  1  0
 17  7  1  0
M  CHG  1   7   1
M  END
$$$$
