
     RDKit          3D

 10  9  0  0  0  0  0  0  0  0999 V2000
  127.1346  135.5264  145.3271 C   0  0  0  0  0  0  0  0  0  0  0  0
  127.0178  136.1859  143.9837 C   0  0  0  0  0  0  0  0  0  0  0  0
  127.8148  135.8742  142.9871 C   0  0  0  0  0  0  0  0  0  0  0  0
  127.7357  136.5770  141.7747 N   0  0  0  0  0  0  0  0  0  0  0  0
  128.6614  136.4490  140.6876 C   0  0  0  0  0  0  0  0  0  0  0  0
  128.4003  134.8976  139.8643 Cl  0  0  0  0  0  0  0  0  0  0  0  0
  128.4860  137.5136  139.6652 C   0  0  0  0  0  0  0  0  0  0  0  0
  129.4626  137.6811  138.7901 C   0  0  0  0  0  0  0  0  0  0  0  0
  129.3892  138.7172  137.7197 C   0  0  0  0  0  0  0  0  0  0  0  0
  129.3059  140.3485  138.3541 Cl  0  0  0  0  0  0  0  0  0  0  0  0
  1  2  1  0
  2  3  2  3
  3  4  1  0
  4  5  1  0
  5  6  1  0
  5  7  1  0
  7  8  2  3
  8  9  1  0
  9 10  1  0
M  END
$$$$
