
     RDKit          3D

 23 25  0  0  0  0  0  0  0  0999 V2000
    0.4319  -10.1671  -63.3737 C   0  0  0  0  0  0  0  0  0  0  0  0
   -0.6708   -9.7775  -63.3849 C   0  0  0  0  0  0  0  0  0  0  0  0
   -2.0877   -9.2628  -63.4135 C   0  0  1  0  0  0  0  0  0  0  0  0
   -2.8596  -10.2833  -64.2570 C   0  0  0  0  0  0  0  0  0  0  0  0
   -4.1384  -10.6171  -63.5459 C   0  0  0  0  0  0  0  0  0  0  0  0
   -2.5912   -9.1922  -62.1228 O   0  0  0  0  0  0  0  0  0  0  0  0
   -2.1309   -8.3507  -61.1617 C   0  0  0  0  0  0  0  0  0  0  0  0
   -1.4597   -7.2040  -61.6183 C   0  0  0  0  0  0  0  0  0  0  0  0
   -0.9704   -6.3110  -60.7023 C   0  0  0  0  0  0  0  0  0  0  0  0
   -1.1167   -6.5036  -59.3326 C   0  0  0  0  0  0  0  0  0  0  0  0
   -0.5377   -5.4951  -58.3901 C   0  0  2  0  0  0  0  0  0  0  0  0
    0.7445   -4.9170  -58.9621 C   0  0  0  0  0  0  0  0  0  0  0  0
    1.3824   -4.0989  -57.9030 C   0  0  0  0  0  0  0  0  0  0  0  0
    2.1379   -3.1167  -58.1941 O   0  0  0  0  0  0  0  0  0  0  0  0
    1.1453   -4.4159  -56.5055 C   0  0  0  0  0  0  0  0  0  0  0  0
    1.7226   -3.7073  -55.4659 C   0  0  0  0  0  0  0  0  0  0  0  0
    1.5150   -3.9843  -54.1319 C   0  0  0  0  0  0  0  0  0  0  0  0
    0.6844   -5.0273  -53.7720 C   0  0  0  0  0  0  0  0  0  0  0  0
    0.0918   -5.7551  -54.8074 C   0  0  0  0  0  0  0  0  0  0  0  0
    0.3144   -5.4595  -56.1244 C   0  0  0  0  0  0  0  0  0  0  0  0
   -0.2736   -6.1805  -57.1727 O   0  0  0  0  0  0  0  0  0  0  0  0
   -1.7634   -7.6102  -58.8939 C   0  0  0  0  0  0  0  0  0  0  0  0
   -2.2761   -8.5424  -59.8028 C   0  0  0  0  0  0  0  0  0  0  0  0
  1  2  3  0
  3  2  1  1
  3  4  1  0
  4  5  1  0
  3  6  1  0
  6  7  1  0
  7  8  2  0
  8  9  1  0
  9 10  2  0
 10 11  1  0
 11 12  1  6
 12 13  1  0
 13 14  2  0
 13 15  1  0
 15 16  2  0
 16 17  1  0
 17 18  2  0
 18 19  1  0
 19 20  2  0
 20 21  1  0
 10 22  1  0
 22 23  2  0
 23  7  1  0
 21 11  1  0
 20 15  1  0
M  END
$$$$
