
     RDKit          3D

 21 23  0  0  0  0  0  0  0  0999 V2000
   -2.9527   -6.8464  -36.6894 C   0  0  0  0  0  0  0  0  0  0  0  0
   -2.2180   -7.3379  -35.5828 O   0  0  0  0  0  0  0  0  0  0  0  0
   -1.2989   -6.4701  -35.0055 C   0  0  0  0  0  0  0  0  0  0  0  0
   -0.5129   -6.6979  -33.8949 C   0  0  0  0  0  0  0  0  0  0  0  0
    0.3506   -5.7136  -33.4599 C   0  0  0  0  0  0  0  0  0  0  0  0
    0.4711   -4.4901  -34.0899 C   0  0  0  0  0  0  0  0  0  0  0  0
    1.4041   -3.5376  -33.5493 C   0  0  0  0  0  0  0  0  0  0  0  0
    1.1864   -2.1904  -33.4408 C   0  0  0  0  0  0  0  0  0  0  0  0
    2.1270   -1.3282  -32.9105 C   0  0  0  0  0  0  0  0  0  0  0  0
    1.9160   -0.0867  -32.8149 O   0  0  0  0  0  0  0  0  0  0  0  0
    3.3460   -1.8161  -32.4630 C   0  0  0  0  0  0  0  0  0  0  0  0
    4.3391   -1.0281  -31.9214 C   0  0  0  0  0  0  0  0  0  0  0  0
    4.1038    0.3396  -31.8173 O   0  0  0  0  0  0  0  0  0  0  0  0
    5.4964   -1.6558  -31.5212 C   0  0  0  0  0  0  0  0  0  0  0  0
    5.6648   -3.0185  -31.6531 C   0  0  0  0  0  0  0  0  0  0  0  0
    6.8873   -3.5194  -31.2061 O   0  0  0  0  0  0  0  0  0  0  0  0
    4.6660   -3.7959  -32.1956 C   0  0  0  0  0  0  0  0  0  0  0  0
    3.4942   -3.1828  -32.6041 C   0  0  0  0  0  0  0  0  0  0  0  0
    2.5610   -3.9580  -33.1184 O   0  0  0  0  0  0  0  0  0  0  0  0
   -0.3098   -4.2489  -35.2028 C   0  0  0  0  0  0  0  0  0  0  0  0
   -1.1777   -5.2484  -35.6336 C   0  0  0  0  0  0  0  0  0  0  0  0
  1  2  1  0
  2  3  1  0
  3  4  2  0
  4  5  1  0
  5  6  2  0
  6  7  1  0
  7  8  2  0
  8  9  1  0
  9 10  2  0
  9 11  1  0
 11 12  2  0
 12 13  1  0
 12 14  1  0
 14 15  2  0
 15 16  1  0
 15 17  1  0
 17 18  2  0
 18 19  1  0
  6 20  1  0
 20 21  2  0
 21  3  1  0
 19  7  1  0
 18 11  1  0
M  END
$$$$
