
     RDKit          3D

 22 24  0  0  0  0  0  0  0  0999 V2000
    0.5528   24.7097   -8.3280 C   0  0  0  0  0  0  0  0  0  0  0  0
    1.8227   25.4925   -8.2677 C   0  0  0  0  0  0  0  0  0  0  0  0
    1.7716   26.6356   -7.4135 N   0  0  0  0  0  0  0  0  0  0  0  0
    1.3380   27.8858   -7.7267 C   0  0  0  0  0  0  0  0  0  0  0  0
    0.8367   28.4074   -8.9151 C   0  0  0  0  0  0  0  0  0  0  0  0
    0.4685   29.7359   -8.9419 C   0  0  0  0  0  0  0  0  0  0  0  0
    0.5860   30.5397   -7.8345 C   0  0  0  0  0  0  0  0  0  0  0  0
    1.0845   30.0254   -6.6492 C   0  0  0  0  0  0  0  0  0  0  0  0
    1.4542   28.6970   -6.6170 C   0  0  0  0  0  0  0  0  0  0  0  0
    1.9580   27.9172   -5.6516 N   0  0  0  0  0  0  0  0  0  0  0  0
    2.2493   28.3553   -4.2983 C   0  0  0  0  0  0  0  0  0  0  0  0
    3.6535   28.9185   -4.3074 C   0  0  1  0  0  0  0  0  0  0  0  0
    3.7077   29.9002   -5.2988 O   0  0  0  0  0  0  0  0  0  0  0  0
    3.9734   29.6044   -3.0217 C   0  0  0  0  0  0  0  0  0  0  0  0
    3.4140   30.8477   -2.8102 C   0  0  0  0  0  0  0  0  0  0  0  0
    3.6777   31.5226   -1.6400 C   0  0  0  0  0  0  0  0  0  0  0  0
    4.4874   30.9924   -0.6679 C   0  0  0  0  0  0  0  0  0  0  0  0
    4.8288   31.8549    0.8357 Cl  0  0  0  0  0  0  0  0  0  0  0  0
    5.0335   29.7523   -0.9008 C   0  0  0  0  0  0  0  0  0  0  0  0
    4.7836   29.0662   -2.0566 C   0  0  0  0  0  0  0  0  0  0  0  0
    2.1477   26.6904   -6.1227 C   0  0  0  0  0  0  0  0  0  0  0  0
    2.6169   25.7091   -5.4514 N   0  0  0  0  0  0  0  0  0  0  0  0
  1  2  1  0
  2  3  1  0
  3  4  1  0
  4  5  2  0
  5  6  1  0
  6  7  2  0
  7  8  1  0
  8  9  2  0
  9 10  1  0
 10 11  1  0
 11 12  1  0
 12 13  1  6
 12 14  1  0
 14 15  2  0
 15 16  1  0
 16 17  2  0
 17 18  1  0
 17 19  1  0
 19 20  2  0
 10 21  1  0
 21 22  2  0
 21  3  1  0
  9  4  1  0
 20 14  1  0
M  END
$$$$
