
     RDKit          3D

 22 24  0  0  0  0  0  0  0  0999 V2000
  128.8632  142.3973  149.2571 C   0  0  0  0  0  0  0  0  0  0  0  0
  127.4939  142.5908  149.8341 C   0  0  0  0  0  0  0  0  0  0  0  0
  127.0816  143.9698  149.6503 N   0  0  0  0  0  0  0  0  0  0  0  0
  127.3151  144.9874  150.4684 C   0  0  0  0  0  0  0  0  0  0  0  0
  127.9769  145.1184  151.6942 C   0  0  0  0  0  0  0  0  0  0  0  0
  128.0658  146.3277  152.3319 C   0  0  0  0  0  0  0  0  0  0  0  0
  127.4701  147.4303  151.7132 C   0  0  0  0  0  0  0  0  0  0  0  0
  126.8173  147.3215  150.5123 C   0  0  0  0  0  0  0  0  0  0  0  0
  126.7321  146.1073  149.8791 C   0  0  0  0  0  0  0  0  0  0  0  0
  126.1609  145.7406  148.7206 N   0  0  0  0  0  0  0  0  0  0  0  0
  125.4365  146.5384  147.7513 C   0  0  0  0  0  0  0  0  0  0  0  0
  123.9599  146.4746  147.9423 C   0  0  1  0  0  0  0  0  0  0  0  0
  123.5925  147.4521  148.8988 O   0  0  0  0  0  0  0  0  0  0  0  0
  123.2281  146.7636  146.6664 C   0  0  0  0  0  0  0  0  0  0  0  0
  122.7615  148.0107  146.3206 C   0  0  0  0  0  0  0  0  0  0  0  0
  122.0837  148.2629  145.1265 C   0  0  0  0  0  0  0  0  0  0  0  0
  121.8737  147.2154  144.2571 C   0  0  0  0  0  0  0  0  0  0  0  0
  121.0227  147.4597  142.7256 Cl  0  0  0  0  0  0  0  0  0  0  0  0
  122.3410  145.9678  144.6041 C   0  0  0  0  0  0  0  0  0  0  0  0
  123.0100  145.7015  145.7749 C   0  0  0  0  0  0  0  0  0  0  0  0
  126.3860  144.4232  148.5967 C   0  0  0  0  0  0  0  0  0  0  0  0
  125.9894  143.6753  147.5964 N   0  0  0  0  0  0  0  0  0  0  0  0
  1  2  1  0
  2  3  1  0
  3  4  1  0
  4  5  2  0
  5  6  1  0
  6  7  2  0
  7  8  1  0
  8  9  2  0
  9 10  1  0
 10 11  1  0
 11 12  1  0
 12 13  1  1
 12 14  1  0
 14 15  2  0
 15 16  1  0
 16 17  2  0
 17 18  1  0
 17 19  1  0
 19 20  2  0
 10 21  1  0
 21 22  2  0
 21  3  1  0
  9  4  1  0
 20 14  1  0
M  END
$$$$
