
     RDKit          3D

 21 23  0  0  0  0  0  0  0  0999 V2000
   46.2938   59.1890   15.2079 Cl  0  0  0  0  0  0  0  0  0  0  0  0
   46.1768   58.8889   13.4374 C   0  0  0  0  0  0  0  0  0  0  0  0
   46.3114   59.9717   12.7192 C   0  0  0  0  0  0  0  0  0  0  0  0
   46.2612   60.0895   11.2398 C   0  0  0  0  0  0  0  0  0  0  0  0
   47.5221   60.3144   10.7737 O   0  0  0  0  0  0  0  0  0  0  0  0
   47.6505   61.1332    9.6840 C   0  0  0  0  0  0  0  0  0  0  0  0
   48.3330   60.3178    8.5762 C   0  0  0  0  0  0  0  0  0  0  0  0
   48.2262   58.8696    8.8676 C   0  0  0  0  0  0  0  0  0  0  0  0
   48.2286   58.4818   10.1430 N   0  0  0  0  0  0  0  0  0  0  0  0
   48.1074   57.2001   10.5287 C   0  0  0  0  0  0  0  0  0  0  0  0
   47.9760   56.2270    9.6015 N   0  0  0  0  0  0  0  0  0  0  0  0
   47.9706   56.5725    8.3176 C   0  0  0  0  0  0  0  0  0  0  0  0
   47.8430   55.6081    7.3517 C   0  0  0  0  0  0  0  0  0  0  0  0
   47.8353   55.9172    5.9935 C   0  0  0  0  0  0  0  0  0  0  0  0
   47.9613   57.2349    5.6509 C   0  0  0  0  0  0  0  0  0  0  0  0
   48.0927   58.2463    6.5870 C   0  0  0  0  0  0  0  0  0  0  0  0
   48.0944   57.8890    7.9217 C   0  0  0  0  0  0  0  0  0  0  0  0
   48.1072   56.8484   11.9724 C   0  0  0  0  0  0  0  0  0  0  0  0
   46.7338   56.6663   12.4380 C   0  0  0  0  0  0  0  0  0  0  0  0
   45.9350   57.5174   13.0501 C   0  0  0  0  0  0  0  0  0  0  0  0
   44.3305   56.8190   13.5485 Cl  0  0  0  0  0  0  0  0  0  0  0  0
  1  2  1  0
  2  3  2  0
  3  4  1  0
  4  5  1  0
  5  6  1  0
  6  7  1  0
  7  8  1  0
  8  9  1  0
  9 10  2  0
 10 11  1  0
 11 12  2  0
 12 13  1  0
 13 14  2  0
 14 15  1  0
 15 16  2  0
 16 17  1  0
 10 18  1  0
 18 19  1  0
 19 20  2  0
 20 21  1  0
 20  2  1  0
 17  8  2  0
 17 12  1  0
M  END
$$$$
