
     RDKit          3D

 21 22  0  0  0  0  0  0  0  0999 V2000
  124.4995  134.2502  148.5542 C   0  0  0  0  0  0  0  0  0  0  0  0
  124.4133  134.8895  147.3699 O   0  0  0  0  0  0  0  0  0  0  0  0
  124.8469  134.3319  146.2193 C   0  0  1  0  0  0  0  0  0  0  0  0
  123.7203  134.4300  145.1370 C   0  0  0  0  0  0  0  0  0  0  0  0
  126.0017  135.0731  145.5889 C   0  0  0  0  0  0  0  0  0  0  0  0
  126.3505  134.5629  144.2174 C   0  0  0  0  0  0  0  0  0  0  0  0
  127.5517  135.2010  143.7440 N   0  0  0  0  0  0  0  0  0  0  0  0
  127.6733  136.5122  143.3973 C   0  0  0  0  0  0  0  0  0  0  0  0
  127.9676  136.6400  142.0613 O   0  0  0  0  0  0  0  0  0  0  0  0
  127.6181  137.7608  144.0061 C   0  0  0  0  0  0  0  0  0  0  0  0
  127.7830  138.4985  142.4480 C   0  0  0  0  0  0  0  0  0  0  0  0
  127.8011  139.7417  142.3324 N   0  0  0  0  0  0  0  0  0  0  0  0
  127.7138  140.7278  143.2385 C   0  0  0  0  0  0  0  0  0  0  0  0
  127.7383  142.0620  143.0523 C   0  0  0  0  0  0  0  0  0  0  0  0
  127.6322  142.9626  144.1202 C   0  0  0  0  0  0  0  0  0  0  0  0
  127.4965  142.4505  145.3976 C   0  0  0  0  0  0  0  0  0  0  0  0
  127.3775  143.3664  146.5411 C   0  0  0  0  0  0  0  0  0  0  0  0
  127.4738  141.0699  145.5771 C   0  0  0  0  0  0  0  0  0  0  0  0
  127.5771  140.2005  144.5451 C   0  0  0  0  0  0  0  0  0  0  0  0
  127.5686  138.8813  144.5524 C   0  0  0  0  0  0  0  0  0  0  0  0
  127.4119  138.4920  145.9402 O   0  0  0  0  0  0  0  0  0  0  0  0
  1  2  1  0
  2  3  1  0
  3  4  1  6
  3  5  1  0
  5  6  1  0
  6  7  1  0
  7  8  1  0
  8  9  2  0
  8 10  1  0
 10 11  2  0
 11 12  1  0
 12 13  1  0
 13 14  2  0
 14 15  1  0
 15 16  2  0
 16 17  1  0
 16 18  1  0
 18 19  2  0
 19 20  1  0
 20 21  2  0
 20 10  1  0
 19 13  1  0
M  END
$$$$
