
     RDKit          3D

 24 26  0  0  0  0  0  0  0  0999 V2000
    5.7325   30.7897   -1.1607 C   0  0  0  0  0  0  0  0  0  0  0  0
    5.6750   30.0339   -2.2591 O   0  0  0  0  0  0  0  0  0  0  0  0
    6.0676   30.4051   -3.4753 C   0  0  0  0  0  0  0  0  0  0  0  0
    6.3887   29.3020   -4.4218 C   0  0  2  0  0  0  0  0  0  0  0  0
    7.8740   28.9745   -4.4259 C   0  0  0  0  0  0  0  0  0  0  0  0
    6.0421   29.7841   -5.7335 O   0  0  0  0  0  0  0  0  0  0  0  0
    4.9209   30.5855   -5.9445 C   0  0  0  0  0  0  0  0  0  0  0  0
    4.9779   31.9368   -5.6816 C   0  0  0  0  0  0  0  0  0  0  0  0
    6.1137   32.5794   -5.2064 O   0  0  0  0  0  0  0  0  0  0  0  0
    3.8568   32.7414   -5.8909 C   0  0  0  0  0  0  0  0  0  0  0  0
    2.7096   32.1508   -6.3614 C   0  0  0  0  0  0  0  0  0  0  0  0
    2.6445   30.7987   -6.6273 C   0  0  0  0  0  0  0  0  0  0  0  0
    1.5117   30.1852   -7.0979 C   0  0  0  0  0  0  0  0  0  0  0  0
    0.4691   30.8467   -7.3084 O   0  0  0  0  0  0  0  0  0  0  0  0
    1.4670   28.8228   -7.3595 C   0  0  0  0  0  0  0  0  0  0  0  0
    0.3173   28.2244   -7.8327 C   0  0  0  0  0  0  0  0  0  0  0  0
   -0.8311   28.9459   -8.0658 O   0  0  0  0  0  0  0  0  0  0  0  0
    0.3639   26.8600   -8.0657 C   0  0  0  0  0  0  0  0  0  0  0  0
    1.5210   26.1479   -7.8282 C   0  0  0  0  0  0  0  0  0  0  0  0
    1.5101   24.7820   -8.0797 O   0  0  0  0  0  0  0  0  0  0  0  0
    2.6695   26.7540   -7.3540 C   0  0  0  0  0  0  0  0  0  0  0  0
    2.6347   28.1213   -7.1167 C   0  0  0  0  0  0  0  0  0  0  0  0
    3.7091   28.7151   -6.6682 O   0  0  0  0  0  0  0  0  0  0  0  0
    3.7614   29.9989   -6.4184 C   0  0  0  0  0  0  0  0  0  0  0  0
  1  2  1  0
  2  3  1  0
  3  4  1  0
  4  5  1  6
  4  6  1  0
  6  7  1  0
  7  8  2  0
  8  9  1  0
  8 10  1  0
 10 11  2  0
 11 12  1  0
 12 13  1  0
 13 14  2  0
 13 15  1  0
 15 16  2  0
 16 17  1  0
 16 18  1  0
 18 19  2  0
 19 20  1  0
 19 21  1  0
 21 22  2  0
 22 23  1  0
 23 24  1  0
 24  7  1  0
 24 12  2  0
 22 15  1  0
M  END
$$$$
