
     RDKit          3D

 21 21  0  0  0  0  0  0  0  0999 V2000
  -11.7860  -12.6876   -3.2531 C   0  0  0  0  0  0  0  0  0  0  0  0
  -12.5777  -13.6228   -3.7173 C   0  0  0  0  0  0  0  0  0  0  0  0
  -12.5005  -14.9677   -3.0926 C   0  0  0  0  0  0  0  0  0  0  0  0
  -11.1380  -15.5649   -3.1674 C   0  0  0  0  0  0  0  0  0  0  0  0
  -10.9596  -16.0758   -4.6043 C   0  0  0  0  0  0  0  0  0  0  0  0
   -9.3227  -16.7575   -4.6920 Cl  0  0  0  0  0  0  0  0  0  0  0  0
  -13.5020  -13.3958   -4.7886 N   0  0  0  0  0  0  0  0  0  0  0  0
  -14.1869  -14.5359   -5.2927 C   0  0  0  0  0  0  0  0  0  0  0  0
  -15.4521  -14.5654   -5.5676 N   0  0  0  0  0  0  0  0  0  0  0  0
  -16.3861  -13.4948   -5.4247 C   0  0  0  0  0  0  0  0  0  0  0  0
  -16.7956  -12.9680   -6.7622 C   0  0  0  0  0  0  0  0  0  0  0  0
  -18.0370  -13.7156   -7.2662 C   0  0  0  0  0  0  0  0  0  0  0  0
  -17.1905  -11.5087   -6.7090 C   0  0  0  0  0  0  0  0  0  0  0  0
  -16.0143  -10.6365   -6.2867 C   0  0  0  0  0  0  0  0  0  0  0  0
  -14.7610  -11.0134   -7.0475 C   0  0  0  0  0  0  0  0  0  0  0  0
  -14.1485  -12.1513   -6.5922 O   0  0  0  0  0  0  0  0  0  0  0  0
  -13.7576  -12.1660   -5.3449 N   0  0  0  0  0  0  0  0  0  0  0  0
  -13.0026  -11.0718   -4.8750 C   0  0  0  0  0  0  0  0  0  0  0  0
  -13.6098  -10.2817   -3.7803 C   0  0  0  0  0  0  0  0  0  0  0  0
  -12.9538   -9.9697   -2.6813 C   0  0  0  0  0  0  0  0  0  0  0  0
  -13.3701   -8.8259   -1.8299 C   0  0  0  0  0  0  0  0  0  0  0  0
  1  2  2  0
  2  3  1  0
  3  4  1  0
  4  5  1  0
  5  6  1  0
  2  7  1  0
  7  8  1  0
  8  9  2  0
  9 10  1  0
 10 11  1  0
 11 12  1  0
 11 13  1  0
 13 14  1  0
 14 15  1  0
 15 16  1  0
 16 17  1  0
 17 18  1  0
 18 19  1  0
 19 20  2  3
 20 21  1  0
 17  7  1  0
M  END
$$$$
