
     RDKit          3D

 22 24  0  0  0  0  0  0  0  0999 V2000
   24.3305   69.6905   10.3938 N   0  0  0  0  0  0  0  0  0  0  0  0
   24.2903   68.7795   11.4832 C   0  0  0  0  0  0  0  0  0  0  0  0
   23.3753   68.9125   12.5102 C   0  0  0  0  0  0  0  0  0  0  0  0
   23.3235   68.0354   13.5778 C   0  0  0  0  0  0  0  0  0  0  0  0
   24.1974   66.9717   13.6657 C   0  0  0  0  0  0  0  0  0  0  0  0
   24.1519   66.0602   14.7699 N   0  0  0  0  0  0  0  0  0  0  0  0
   23.2090   66.2206   15.8007 C   0  0  0  0  0  0  0  0  0  0  0  0
   22.3035   67.2091   15.6614 N   0  0  0  0  0  0  0  0  0  0  0  0
   21.3465   67.4747   16.5670 C   0  0  0  0  0  0  0  0  0  0  0  0
   20.3836   68.5727   16.3090 C   0  0  0  0  0  0  0  0  0  0  0  0
   20.3307   68.9626   14.8462 C   0  0  0  0  0  0  0  0  0  0  0  0
   19.2134   68.3522   14.2526 O   0  0  0  0  0  0  0  0  0  0  0  0
   21.3062   66.6824   17.6920 C   0  0  0  0  0  0  0  0  0  0  0  0
   20.3594   66.9074   18.6565 C   0  0  0  0  0  0  0  0  0  0  0  0
   20.3190   66.1213   19.7866 C   0  0  0  0  0  0  0  0  0  0  0  0
   21.2389   65.0969   19.9530 C   0  0  0  0  0  0  0  0  0  0  0  0
   22.2112   64.8503   18.9855 C   0  0  0  0  0  0  0  0  0  0  0  0
   22.2351   65.6486   17.8611 C   0  0  0  0  0  0  0  0  0  0  0  0
   23.1652   65.4582   16.8885 N   0  0  0  0  0  0  0  0  0  0  0  0
   25.1103   66.8372   12.6432 C   0  0  0  0  0  0  0  0  0  0  0  0
   25.1644   67.7100   11.5774 C   0  0  0  0  0  0  0  0  0  0  0  0
   26.3496   67.5040   10.2871 Cl  0  0  0  0  0  0  0  0  0  0  0  0
  1  2  1  0
  2  3  2  0
  3  4  1  0
  4  5  2  0
  5  6  1  0
  6  7  1  0
  7  8  2  0
  8  9  1  0
  9 10  1  0
 10 11  1  0
 11 12  1  0
  9 13  2  0
 13 14  1  0
 14 15  2  0
 15 16  1  0
 16 17  2  0
 17 18  1  0
 18 19  2  0
  5 20  1  0
 20 21  2  0
 21 22  1  0
 21  2  1  0
 19  7  1  0
 18 13  1  0
M  END
$$$$
