
     RDKit          3D

 11 10  0  0  0  0  0  0  0  0999 V2000
  130.2792  139.0157  138.7372 N   0  0  0  0  0  0  0  0  0  0  0  0
  128.8482  139.0268  138.9122 C   0  0  0  0  0  0  0  0  0  0  0  0
  128.3888  140.2834  139.6548 C   0  0  0  0  0  2  0  0  0  0  0  0
  129.3048  140.6011  140.8109 C   0  0  0  0  0  0  0  0  0  0  0  0
  128.4269  140.1078  142.4522 Br  0  0  0  0  0  0  0  0  0  0  0  0
  128.3867  137.9035  139.6936 N   0  0  0  0  0  0  0  0  0  0  0  0
  128.6416  136.7029  139.2976 C   0  0  0  0  0  0  0  0  0  0  0  0
  128.0221  135.6425  140.0052 N   0  0  0  0  0  0  0  0  0  0  0  0
  128.4259  134.2946  139.7095 C   0  0  0  0  0  0  0  0  0  0  0  0
  127.7063  133.1759  141.0352 P   0  0  0  0  0  3  0  0  0  0  0  0
  127.4089  133.7474  142.4596 O   0  0  0  0  0  0  0  0  0  0  0  0
  1  2  1  0
  2  3  1  0
  3  4  1  0
  4  5  1  0
  2  6  1  0
  6  7  2  3
  7  8  1  0
  8  9  1  0
  9 10  1  0
 10 11  2  0
M  CHG  2   3  -1  10  -1
M  RAD  2   3   2  10   2
M  END
$$$$
