
     RDKit          3D

 23 25  0  0  0  0  0  0  0  0999 V2000
  173.4423  145.6192  157.6204 C   0  0  0  0  0  0  0  0  0  0  0  0
  173.2065  144.9768  158.8108 O   0  0  0  0  0  0  0  0  0  0  0  0
  172.3213  144.0352  159.1932 C   0  0  0  0  0  0  0  0  0  0  0  0
  171.4571  143.4458  158.2558 C   0  0  0  0  0  0  0  0  0  0  0  0
  170.5363  142.4864  158.5740 C   0  0  0  0  0  0  0  0  0  0  0  0
  169.5866  141.8358  157.6643 C   0  0  0  0  0  0  0  0  0  0  0  0
  169.5117  142.3013  156.4105 O   0  0  0  0  0  0  0  0  0  0  0  0
  168.6936  141.7783  155.5381 C   0  0  0  0  0  0  0  0  0  0  0  0
  168.6664  142.3103  154.2717 C   0  0  0  0  0  0  0  0  0  0  0  0
  167.8126  141.7833  153.3240 C   0  0  0  0  0  0  0  0  0  0  0  0
  167.8047  142.4031  151.9735 C   0  0  0  0  0  0  0  0  0  0  0  0
  166.9764  140.7284  153.6070 C   0  0  0  0  0  0  0  0  0  0  0  0
  166.0701  140.1738  152.5563 C   0  0  0  0  0  0  0  0  0  0  0  0
  166.9846  140.1769  154.8744 C   0  0  0  0  0  0  0  0  0  0  0  0
  167.8557  140.7285  155.8126 C   0  0  0  0  0  0  0  0  0  0  0  0
  167.8942  140.2118  157.0877 C   0  0  0  0  0  0  0  0  0  0  0  0
  167.1567  139.2518  157.4064 O   0  0  0  0  0  0  0  0  0  0  0  0
  168.7872  140.8033  157.9989 C   0  0  0  0  0  0  0  0  0  0  0  0
  168.7894  140.2509  159.2675 O   0  0  0  0  0  0  0  0  0  0  0  0
  170.4661  142.0828  159.9178 C   0  0  0  0  0  0  0  0  0  0  0  0
  171.2899  142.6291  160.8703 C   0  0  0  0  0  0  0  0  0  0  0  0
  172.2155  143.6039  160.5024 C   0  0  0  0  0  0  0  0  0  0  0  0
  173.0255  144.1231  161.4849 O   0  0  0  0  0  0  0  0  0  0  0  0
  1  2  1  0
  2  3  1  0
  3  4  2  0
  4  5  1  0
  5  6  1  0
  6  7  1  0
  7  8  1  0
  8  9  2  0
  9 10  1  0
 10 11  1  0
 10 12  2  0
 12 13  1  0
 12 14  1  0
 14 15  2  0
 15 16  1  0
 16 17  2  0
 16 18  1  0
 18 19  1  0
  5 20  2  0
 20 21  1  0
 21 22  2  0
 22 23  1  0
 22  3  1  0
 18  6  2  0
 15  8  1  0
M  END
$$$$
