
     RDKit          3D

 23 25  0  0  0  0  0  0  0  0999 V2000
   -4.6577    3.7135  -19.5893 N   0  0  0  0  0  0  0  0  0  0  0  0
   -3.6386    4.4646  -20.2450 C   0  0  0  0  0  0  0  0  0  0  0  0
   -2.4151    4.5621  -19.7649 C   0  0  0  0  0  0  0  0  0  0  0  0
   -1.3707    5.3417  -20.4528 C   0  0  0  0  0  0  0  0  0  0  0  0
   -1.9160    6.3092  -21.3745 N   0  0  0  0  0  0  0  0  0  0  0  0
   -1.0521    7.3232  -21.8745 C   0  0  0  0  0  0  0  0  0  0  0  0
    0.2884    7.2401  -21.7081 C   0  0  0  0  0  3  0  0  0  0  0  0
    1.2157    8.2049  -22.1744 C   0  0  0  0  0  0  0  0  0  0  0  0
    2.5742    7.9880  -21.9305 N   0  0  0  0  0  0  0  0  0  0  0  0
    3.3908    6.9319  -21.5159 C   0  0  0  0  0  0  0  0  0  0  0  0
    3.0438    6.5254  -20.0332 C   0  0  0  0  0  0  0  0  0  0  0  0
    3.8591    7.3437  -19.2528 O   0  0  0  0  0  0  0  0  0  0  0  0
    0.6853    9.2849  -22.8359 C   0  0  0  0  0  0  0  0  0  0  0  0
    1.4872   10.2884  -23.3356 C   0  0  0  0  0  0  0  0  0  0  0  0
    0.8967   11.3456  -23.9897 C   0  0  0  0  0  0  0  0  0  0  0  0
   -0.4677   11.4237  -24.1553 C   0  0  0  0  0  0  0  0  0  0  0  0
   -1.2656   10.4206  -23.6555 C   0  0  0  0  0  0  0  0  0  0  0  0
   -0.7058    9.3327  -22.9867 C   0  0  0  0  0  0  0  0  0  0  0  0
   -1.5333    8.3822  -22.5196 N   0  0  0  0  0  0  0  0  0  0  0  0
   -3.2949    6.2804  -21.8006 C   0  0  0  0  0  0  0  0  0  0  0  0
   -4.1763    7.6501  -21.0724 Cl  0  0  0  0  0  0  0  0  0  0  0  0
   -3.9681    5.1053  -21.4250 O   0  0  0  0  0  3  0  0  0  0  0  0
   -5.2026    4.5081  -22.4803 Cl  0  0  0  0  0  0  0  0  0  0  0  0
  1  2  1  0
  2  3  2  0
  3  4  1  0
  4  5  1  0
  5  6  1  0
  6  7  2  0
  7  8  1  0
  8  9  1  0
  9 10  1  0
 10 11  1  0
 11 12  1  0
  8 13  2  0
 13 14  1  0
 14 15  2  0
 15 16  1  0
 16 17  2  0
 17 18  1  0
 18 19  2  0
  5 20  1  0
 20 21  1  0
 20 22  1  0
 22 23  1  0
 22  2  1  0
 19  6  1  0
 18 13  1  0
M  CHG  2   7  -1  22   1
M  END
$$$$
