
     RDKit          3D

 12 12  0  0  0  0  0  0  0  0999 V2000
   14.5194   38.3233   16.5284 C   0  0  0  0  0  0  0  0  0  0  0  0
   13.4908   38.8071   17.2047 C   0  0  0  0  0  0  0  0  0  0  0  0
   12.7648   38.0296   18.1354 N   0  0  0  0  0  0  0  0  0  0  0  0
   11.4922   38.1662   18.2068 C   0  0  0  0  0  0  0  0  0  0  0  0
   10.4111   36.7817   18.2023 Cl  0  0  0  0  0  0  0  0  0  0  0  0
   10.9166   39.5001   18.2942 C   0  0  0  0  0  0  0  0  0  0  0  0
   10.8454   40.1644   19.5078 C   0  0  0  0  0  0  0  0  0  0  0  0
   10.2884   41.4271   19.5252 C   0  0  0  0  0  0  0  0  0  0  0  0
    9.8119   42.0235   18.3743 C   0  0  0  0  0  0  0  0  0  0  0  0
    9.8868   41.3547   17.1698 C   0  0  0  0  0  0  0  0  0  0  0  0
    9.2914   42.0826   15.6898 Cl  0  0  0  0  0  0  0  0  0  0  0  0
   10.4416   40.0904   17.1365 C   0  0  0  0  0  0  0  0  0  0  0  0
  1  2  2  0
  2  3  1  0
  3  4  2  3
  4  5  1  0
  4  6  1  0
  6  7  2  0
  7  8  1  0
  8  9  2  0
  9 10  1  0
 10 11  1  0
 10 12  2  0
 12  6  1  0
M  END
$$$$
