
     RDKit          3D

 20 21  0  0  0  0  0  0  0  0999 V2000
   -1.5848   -3.3116  -60.7708 C   0  0  0  0  0  0  0  0  0  0  0  0
   -1.5719   -4.7929  -60.9179 C   0  0  0  0  0  0  0  0  0  0  0  0
   -1.9707   -5.6268  -59.8670 C   0  0  0  0  0  0  0  0  0  0  0  0
   -1.9687   -6.9918  -59.9744 C   0  0  0  0  0  0  0  0  0  0  0  0
   -2.3754   -7.7998  -58.9286 N   0  0  0  0  0  0  0  0  0  0  0  0
   -3.3020   -7.4883  -57.8534 C   0  0  2  0  0  0  0  0  0  0  0  0
   -2.7318   -7.7048  -56.5061 C   0  0  0  0  0  0  0  0  0  0  0  0
   -4.6467   -8.1429  -58.0039 C   0  0  0  0  0  0  0  0  0  0  0  0
   -5.5344   -7.2914  -58.8491 C   0  0  0  0  0  0  0  0  0  0  0  0
   -6.5279   -8.0642  -59.5742 N   0  0  0  0  0  4  0  0  0  0  0  0
   -7.6326   -8.3018  -58.6634 C   0  0  0  0  0  0  0  0  0  0  0  0
   -6.9644   -7.4146  -60.7788 C   0  0  0  0  0  0  0  0  0  0  0  0
   -1.5465   -7.5354  -61.1942 C   0  0  0  0  0  0  0  0  0  0  0  0
   -1.5061   -8.8937  -61.4072 C   0  0  0  0  0  0  0  0  0  0  0  0
   -1.0903   -9.4294  -62.6076 C   0  0  0  0  0  0  0  0  0  0  0  0
   -1.0539  -10.7859  -62.8097 F   0  0  0  0  0  0  0  0  0  0  0  0
   -0.7037   -8.5890  -63.6244 C   0  0  0  0  0  0  0  0  0  0  0  0
   -0.7380   -7.2288  -63.4277 C   0  0  0  0  0  0  0  0  0  0  0  0
   -1.1584   -6.6790  -62.2137 C   0  0  0  0  0  0  0  0  0  0  0  0
   -1.1793   -5.3487  -62.0556 N   0  0  0  0  0  0  0  0  0  0  0  0
  1  2  1  0
  2  3  2  0
  3  4  1  0
  4  5  1  0
  5  6  1  0
  6  7  1  1
  6  8  1  0
  8  9  1  0
  9 10  1  0
 10 11  1  0
 10 12  1  0
  4 13  2  0
 13 14  1  0
 14 15  2  0
 15 16  1  0
 15 17  1  0
 17 18  2  0
 18 19  1  0
 19 20  2  0
 20  2  1  0
 19 13  1  0
M  CHG  1  10   1
M  END
$$$$
