
     RDKit          3D

 27 29  0  0  0  0  0  0  0  0999 V2000
  119.6367  130.0528   74.7019 O   0  0  0  0  0  0  0  0  0  0  0  0
  119.7739  131.0494   75.4526 C   0  0  0  0  0  0  0  0  0  0  0  0
  118.6335  131.7900   75.8612 N   0  0  0  0  0  0  0  0  0  0  0  0
  117.2860  131.5222   75.3987 C   0  0  0  0  0  0  0  0  0  0  0  0
  116.2982  132.5042   75.9442 C   0  0  0  0  0  0  0  0  0  0  0  0
  114.9136  132.2513   75.4733 C   0  0  0  0  0  0  0  0  0  0  0  0
  114.4848  132.6952   74.2457 N   0  0  0  0  0  0  0  0  0  0  0  0
  113.1918  132.3698   74.0816 C   0  0  0  0  0  0  0  0  0  0  0  0
  112.3031  132.6006   73.0264 C   0  0  0  0  0  0  0  0  0  0  0  0
  111.0194  132.1465   73.1700 C   0  0  0  0  0  0  0  0  0  0  0  0
  110.6340  131.4893   74.3172 C   0  0  0  0  0  0  0  0  0  0  0  0
  111.5175  131.2681   75.3479 C   0  0  0  0  0  0  0  0  0  0  0  0
  112.8241  131.7147   75.2313 C   0  0  0  0  0  0  0  0  0  0  0  0
  113.8999  131.6466   76.0854 N   0  0  0  0  0  0  0  0  0  0  0  0
  113.8525  131.0217   77.3762 C   0  0  0  0  0  0  0  0  0  0  0  0
  114.9719  130.1123   77.6980 C   0  0  0  0  0  0  0  0  0  0  0  0
  115.9956  130.4813   78.5401 C   0  0  0  0  0  0  0  0  0  0  0  0
  117.0495  129.6360   78.8137 C   0  0  0  0  0  0  0  0  0  0  0  0
  117.1309  128.3782   78.2574 C   0  0  0  0  0  0  0  0  0  0  0  0
  116.0923  128.0238   77.4126 C   0  0  0  0  0  0  0  0  0  0  0  0
  115.0435  128.8475   77.1317 C   0  0  0  0  0  0  0  0  0  0  0  0
  121.0886  131.4332   75.8932 N   0  0  0  0  0  0  0  0  0  0  0  0
  122.1849  130.7059   75.3404 C   0  0  0  0  0  0  0  0  0  0  0  0
  123.5315  131.0515   75.8831 C   0  0  0  0  0  0  0  0  0  0  0  0
  124.6212  130.2798   75.2268 C   0  0  0  0  0  0  0  0  0  0  0  0
  124.6536  130.6269   73.8643 F   0  0  0  0  0  0  0  0  0  0  0  0
  125.8308  130.5849   75.8019 F   0  0  0  0  0  0  0  0  0  0  0  0
  1  2  2  0
  2  3  1  0
  3  4  1  0
  4  5  1  0
  5  6  1  0
  6  7  2  0
  7  8  1  0
  8  9  2  0
  9 10  1  0
 10 11  2  0
 11 12  1  0
 12 13  2  0
 13 14  1  0
 14 15  1  0
 15 16  1  0
 16 17  2  0
 17 18  1  0
 18 19  2  0
 19 20  1  0
 20 21  2  0
  2 22  1  0
 22 23  1  0
 23 24  1  0
 24 25  1  0
 25 26  1  0
 25 27  1  0
 14  6  1  0
 21 16  1  0
 13  8  1  0
M  END
$$$$
