
     RDKit          3D

 24 26  0  0  0  0  0  0  0  0999 V2000
   13.2436  -24.8807  -18.8078 C   0  0  0  0  0  0  0  0  0  0  0  0
   13.4567  -25.6765  -19.9481 O   0  0  0  0  0  0  0  0  0  0  0  0
   14.0837  -25.1310  -21.0710 C   0  0  0  0  0  0  0  0  0  0  0  0
   13.9067  -25.6664  -22.3368 C   0  0  0  0  0  0  0  0  0  0  0  0
   14.5207  -25.1333  -23.4495 C   0  0  0  0  0  0  0  0  0  0  0  0
   15.3543  -24.0136  -23.3137 C   0  0  0  0  0  0  0  0  0  0  0  0
   16.0878  -23.2643  -24.7086 Cl  0  0  0  0  0  0  0  0  0  0  0  0
   15.5460  -23.4693  -22.0741 C   0  0  0  0  0  0  0  0  0  0  0  0
   16.4680  -22.3350  -21.8856 C   0  0  0  0  0  0  0  0  0  0  0  0
   17.8291  -22.6626  -21.9423 N   0  0  0  0  0  0  0  0  0  0  0  0
   18.8405  -21.7488  -22.2130 C   0  0  0  0  0  0  0  0  0  0  0  0
   19.4697  -21.0809  -21.0288 C   0  0  0  0  0  0  0  0  0  0  0  0
   19.0292  -21.4897  -19.7726 N   0  0  0  0  0  0  0  0  0  0  0  0
   19.0805  -20.6138  -18.6787 C   0  0  0  0  0  0  0  0  0  0  0  0
   20.4251  -20.6515  -18.0490 C   0  0  0  0  0  0  0  0  0  0  0  0
   21.3158  -19.6063  -18.1335 C   0  0  0  0  0  0  0  0  0  0  0  0
   22.5651  -19.6622  -17.5442 C   0  0  0  0  0  0  0  0  0  0  0  0
   22.9548  -20.7942  -16.8418 C   0  0  0  0  0  0  0  0  0  0  0  0
   24.2013  -20.8584  -16.2499 O   0  0  0  0  0  0  0  0  0  0  0  0
   22.0925  -21.8523  -16.7385 C   0  0  0  0  0  0  0  0  0  0  0  0
   20.8357  -21.7646  -17.3462 C   0  0  0  0  0  0  0  0  0  0  0  0
   18.3521  -22.7054  -19.6241 C   0  0  0  0  0  0  0  0  0  0  0  0
   18.2686  -23.5405  -20.8709 C   0  0  0  0  0  0  0  0  0  0  0  0
   14.9058  -24.0346  -20.9623 C   0  0  0  0  0  0  0  0  0  0  0  0
  1  2  1  0
  2  3  1  0
  3  4  2  0
  4  5  1  0
  5  6  2  0
  6  7  1  0
  6  8  1  0
  8  9  1  0
  9 10  1  0
 10 11  1  0
 11 12  1  0
 12 13  1  0
 13 14  1  0
 14 15  1  0
 15 16  2  0
 16 17  1  0
 17 18  2  0
 18 19  1  0
 18 20  1  0
 20 21  2  0
 13 22  1  0
 22 23  1  0
  8 24  2  0
 24  3  1  0
 23 10  1  0
 21 15  1  0
M  END
$$$$
