
     RDKit          3D

 28 29  0  0  0  0  0  0  0  0999 V2000
   11.9837   31.1615   -9.6214 C   0  0  0  0  0  0  0  0  0  0  0  0
   11.0808   30.0014   -9.4548 C   0  0  0  0  0  0  0  0  0  0  0  0
   10.0299   29.9885   -8.6970 C   0  0  0  0  0  0  0  0  0  0  0  0
    9.1120   28.8285   -8.4722 C   0  0  0  0  0  0  0  0  0  0  0  0
    7.9248   28.6726   -9.8180 Cl  0  0  0  0  0  0  0  0  0  0  0  0
    8.3868   28.9673   -7.2786 C   0  0  0  0  0  0  0  0  0  0  0  0
    9.8918   28.6267   -6.2462 C   0  0  0  0  0  0  0  0  0  0  0  0
    7.7662   29.0860   -6.2518 C   0  0  0  0  0  0  0  0  0  0  0  0
    7.0453   29.2239   -5.0592 C   0  0  0  0  0  0  0  0  0  0  0  0
    5.6845   29.0837   -5.0323 C   0  0  0  0  0  0  0  0  0  0  0  0
    4.8419   30.1671   -5.3472 N   0  0  0  0  0  0  0  0  0  0  0  0
    5.1970   31.5070   -4.8470 C   0  0  0  0  0  0  0  0  0  0  0  0
    5.2394   31.3518   -3.3728 C   0  0  0  0  0  0  0  0  0  0  0  0
    4.2150   31.3932   -2.5789 C   0  0  0  0  0  0  0  0  0  0  0  0
    2.8244   31.5956   -2.9197 C   0  0  0  0  0  0  0  0  0  0  0  0
    1.7898   31.6966   -1.8220 C   0  0  0  0  0  0  0  0  0  0  0  0
    2.3360   31.7143   -4.1089 C   0  0  0  0  0  0  0  0  0  0  0  0
    1.5769   30.7838   -4.5833 N   0  0  0  0  0  0  0  0  0  0  0  0
    1.4991   30.7067   -6.0585 C   0  0  0  0  0  0  0  0  0  0  0  0
    0.9681   29.3884   -6.5359 C   0  0  0  0  0  0  0  0  0  0  0  0
    2.0919   28.5915   -7.1547 C   0  0  0  0  0  0  0  0  0  0  0  0
    1.8356   27.8840   -8.3383 N   0  0  0  0  0  0  0  0  0  0  0  0
    2.4761   26.6185   -8.5807 C   0  0  0  0  0  0  0  0  0  0  0  0
    1.3596   25.5821   -8.6429 C   0  0  0  0  0  0  0  0  0  0  0  0
    0.9933   25.1572   -7.3753 O   0  0  0  0  0  0  0  0  0  0  0  0
    3.1973   28.6367   -6.4988 N   0  0  0  0  0  0  0  0  0  0  0  0
    3.6906   29.9344   -6.0970 C   0  0  0  0  0  0  0  0  0  0  0  0
    2.8929   30.9002   -6.4919 N   0  0  0  0  0  0  0  0  0  0  0  0
  1  2  1  0
  2  3  2  3
  3  4  1  0
  4  5  1  0
  4  6  1  0
  6  7  1  0
  6  8  2  3
  8  9  1  0
  9 10  2  3
 10 11  1  0
 11 12  1  0
 12 13  1  0
 13 14  2  0
 14 15  1  0
 15 16  1  0
 15 17  2  0
 17 18  2  0
 18 19  1  0
 19 20  1  0
 20 21  1  0
 21 22  1  0
 22 23  1  0
 23 24  1  0
 24 25  1  0
 21 26  2  0
 26 27  1  0
 27 28  2  0
 27 11  1  0
 28 19  1  0
M  END
$$$$
