
     RDKit          3D

 22 23  0  0  0  0  0  0  0  0999 V2000
   -1.9658   -7.2889  -56.3557 C   0  0  0  0  0  0  0  0  0  0  0  0
   -0.6137   -6.8962  -56.8198 C   0  0  0  0  0  0  0  0  0  0  0  0
   -0.6391   -6.1747  -58.1798 C   0  0  1  0  0  0  0  0  0  0  0  0
    0.7159   -5.5541  -58.4470 C   0  0  0  0  0  0  0  0  0  0  0  0
    1.0337   -4.4396  -57.4827 C   0  0  0  0  0  0  0  0  0  0  0  0
    2.1930   -3.7564  -57.8502 O   0  0  0  0  0  0  0  0  0  0  0  0
   -1.0077   -7.1547  -59.1315 N   0  0  0  0  0  4  0  0  0  0  0  0
   -2.2255   -6.9646  -59.8602 C   0  0  1  0  0  0  0  0  0  0  0  0
   -2.0913   -5.7121  -60.6308 C   0  0  0  0  0  0  0  0  0  0  0  0
   -0.9362   -5.3937  -61.2858 C   0  0  0  0  0  0  0  0  0  0  0  0
   -0.7921   -4.2144  -62.0111 C   0  0  0  0  0  0  0  0  0  0  0  0
   -1.8400   -3.3338  -62.0775 C   0  0  0  0  0  0  0  0  0  0  0  0
   -1.7220   -2.1601  -62.7889 F   0  0  0  0  0  0  0  0  0  0  0  0
   -3.0103   -3.6386  -61.4243 C   0  0  0  0  0  0  0  0  0  0  0  0
   -3.1380   -4.8307  -60.6984 C   0  0  0  0  0  0  0  0  0  0  0  0
   -2.6468   -8.0941  -60.7059 C   0  0  0  0  0  0  0  0  0  0  0  0
   -3.8003   -8.7710  -60.3718 C   0  0  0  0  0  0  0  0  0  0  0  0
   -4.2969   -9.8356  -61.0950 C   0  0  0  0  0  0  0  0  0  0  0  0
   -3.6322  -10.2628  -62.2040 C   0  0  0  0  0  0  0  0  0  0  0  0
   -4.2317  -11.6205  -63.1581 Cl  0  0  0  0  0  0  0  0  0  0  0  0
   -2.4748   -9.6181  -62.5781 C   0  0  0  0  0  0  0  0  0  0  0  0
   -1.9904   -8.5409  -61.8294 C   0  0  0  0  0  0  0  0  0  0  0  0
  1  2  1  0
  3  2  1  1
  3  4  1  0
  4  5  1  0
  5  6  1  0
  3  7  1  0
  8  7  1  6
  8  9  1  0
  9 10  2  0
 10 11  1  0
 11 12  2  0
 12 13  1  0
 12 14  1  0
 14 15  2  0
  8 16  1  0
 16 17  2  0
 17 18  1  0
 18 19  2  0
 19 20  1  0
 19 21  1  0
 21 22  2  0
 15  9  1  0
 22 16  1  0
M  CHG  1   7   1
M  END
$$$$
