
     RDKit          3D

 22 24  0  0  0  0  0  0  0  0999 V2000
  117.4575  151.0040  138.6745 O   0  0  0  0  0  0  0  0  0  0  0  0
  117.7477  149.7829  138.7233 C   0  0  0  0  0  0  0  0  0  0  0  0
  118.0163  149.2640  140.0143 N   0  0  0  0  0  0  0  0  0  0  0  0
  118.1981  150.0850  141.1607 C   0  0  0  0  0  0  0  0  0  0  0  0
  118.5328  149.6816  142.3685 N   0  0  0  0  0  0  0  0  0  0  0  0
  118.6654  150.5426  143.3284 C   0  0  0  0  0  0  0  0  0  0  0  0
  119.0415  150.1271  144.7030 C   0  0  0  0  0  0  0  0  0  0  0  0
  119.3201  151.0643  145.6754 C   0  0  0  0  0  0  0  0  0  0  0  0
  119.6698  150.6928  146.9528 C   0  0  0  0  0  0  0  0  0  0  0  0
  119.7444  149.3545  147.2718 C   0  0  0  0  0  0  0  0  0  0  0  0
  119.4590  148.4308  146.2744 C   0  0  0  0  0  0  0  0  0  0  0  0
  119.1220  148.8453  145.0411 N   0  0  0  0  0  0  0  0  0  0  0  0
  118.4437  151.8652  143.0262 C   0  0  0  0  0  0  0  0  0  0  0  0
  118.0555  151.7681  141.3591 S   0  0  0  0  0  0  0  0  0  0  0  0
  117.7910  148.9973  137.5000 C   0  0  0  0  0  0  0  0  0  0  0  0
  116.8804  149.1514  136.4816 C   0  0  0  0  0  0  0  0  0  0  0  0
  116.9962  148.3632  135.3552 C   0  0  0  0  0  0  0  0  0  0  0  0
  117.9937  147.4157  135.1981 C   0  0  0  0  0  0  0  0  0  0  0  0
  118.0802  146.6298  134.0344 O   0  0  0  0  0  0  0  0  0  0  0  0
  118.8931  147.2832  136.2359 C   0  0  0  0  0  0  0  0  0  0  0  0
  120.1655  146.1083  136.0906 Cl  0  0  0  0  0  0  0  0  0  0  0  0
  118.8002  148.0587  137.3737 C   0  0  0  0  0  0  0  0  0  0  0  0
  1  2  2  0
  2  3  1  0
  3  4  1  0
  4  5  2  0
  5  6  1  0
  6  7  1  0
  7  8  2  0
  8  9  1  0
  9 10  2  0
 10 11  1  0
 11 12  2  0
  6 13  2  0
 13 14  1  0
  2 15  1  0
 15 16  2  0
 16 17  1  0
 17 18  2  0
 18 19  1  0
 18 20  1  0
 20 21  1  0
 20 22  2  0
 14  4  1  0
 22 15  1  0
 12  7  1  0
M  END
$$$$
