
     RDKit          3D

 21 23  0  0  0  0  0  0  0  0999 V2000
  150.1923  159.0839  159.6767 N   0  0  0  0  0  0  0  0  0  0  0  0
  150.5799  157.9484  159.0551 O   0  0  0  0  0  0  0  0  0  0  0  0
  151.0065  158.2827  157.7923 C   0  0  0  0  0  0  0  0  0  0  0  0
  150.1138  157.7346  156.7027 C   0  0  0  0  0  0  0  0  0  0  0  0
  150.8765  156.8296  155.9060 N   0  0  0  0  0  0  0  0  0  0  0  0
  150.1822  155.8251  155.3253 N   0  0  0  0  0  0  0  0  0  0  0  0
  150.7313  154.8191  154.4122 C   0  0  0  0  0  0  0  0  0  0  0  0
  151.8261  154.9525  153.4791 C   0  0  0  0  0  0  0  0  0  0  0  0
  153.0071  155.5782  153.8388 C   0  0  0  0  0  0  0  0  0  0  0  0
  154.0459  155.6927  152.9173 C   0  0  0  0  0  0  0  0  0  0  0  0
  153.9268  155.1910  151.6354 C   0  0  0  0  0  0  0  0  0  0  0  0
  155.2687  155.3687  150.5297 Cl  0  0  0  0  0  0  0  0  0  0  0  0
  152.7513  154.5677  151.2762 C   0  0  0  0  0  0  0  0  0  0  0  0
  152.5750  153.9236  149.6585 Cl  0  0  0  0  0  0  0  0  0  0  0  0
  151.7506  154.4687  152.1959 C   0  0  0  0  0  0  0  0  0  0  0  0
  150.0338  153.7016  154.5962 N   0  0  0  0  0  0  0  0  0  0  0  0
  149.0395  153.9447  155.6212 C   0  0  0  0  0  0  0  0  0  0  0  0
  148.2587  153.5477  156.5898 C   0  0  0  0  0  0  0  0  0  0  0  0
  147.5399  154.7172  157.0735 C   0  0  0  0  0  0  0  0  0  0  0  0
  147.8860  155.8060  156.3812 C   0  0  0  0  0  0  0  0  0  0  0  0
  148.8232  155.4453  155.3946 C   0  0  0  0  0  0  0  0  0  0  0  0
  1  2  1  0
  2  3  1  0
  3  4  1  0
  4  5  1  0
  5  6  1  0
  6  7  1  0
  7  8  1  0
  8  9  2  0
  9 10  1  0
 10 11  2  0
 11 12  1  0
 11 13  1  0
 13 14  1  0
 13 15  2  0
  7 16  2  0
 16 17  1  0
 17 18  2  0
 18 19  1  0
 19 20  2  0
 20 21  1  0
 21  6  1  0
 15  8  1  0
 21 17  1  0
M  END
$$$$
