
     RDKit          3D

 19 21  0  0  0  0  0  0  0  0999 V2000
    1.8594   -3.6814  -54.4093 N   0  0  0  0  0  0  0  0  0  0  0  0
    1.1989   -4.6442  -55.2187 C   0  0  0  0  0  0  0  0  0  0  0  0
    0.6804   -5.8138  -54.6765 C   0  0  0  0  0  0  0  0  0  0  0  0
    0.0478   -6.7314  -55.4795 C   0  0  0  0  0  0  0  0  0  0  0  0
   -0.1049   -6.5464  -56.8416 C   0  0  0  0  0  0  0  0  0  0  0  0
   -0.7712   -7.5381  -57.6115 N   0  0  0  0  0  0  0  0  0  0  0  0
   -0.7781   -7.4789  -59.0270 C   0  0  0  0  0  0  0  0  0  0  0  0
   -0.3054   -6.3568  -59.6199 N   0  0  0  0  0  0  0  0  0  0  0  0
   -0.2733   -6.2003  -60.9523 C   0  0  0  0  0  0  0  0  0  0  0  0
   -0.7496   -7.2479  -61.7399 C   0  0  0  0  0  0  0  0  0  0  0  0
   -0.7463   -7.1501  -63.1198 C   0  0  0  0  0  0  0  0  0  0  0  0
   -1.2158   -8.1749  -63.9089 C   0  0  0  0  0  0  0  0  0  0  0  0
   -1.6996   -9.3233  -63.3063 C   0  0  0  0  0  0  0  0  0  0  0  0
   -1.7153   -9.4487  -61.9512 C   0  0  0  0  0  0  0  0  0  0  0  0
   -1.2315   -8.3904  -61.1718 C   0  0  0  0  0  0  0  0  0  0  0  0
   -1.2255   -8.4584  -59.8209 N   0  0  0  0  0  0  0  0  0  0  0  0
    0.4032   -5.3914  -57.3990 C   0  0  0  0  0  0  0  0  0  0  0  0
    1.0374   -4.4737  -56.5869 C   0  0  0  0  0  0  0  0  0  0  0  0
    1.6838   -2.9968  -57.3088 Cl  0  0  0  0  0  0  0  0  0  0  0  0
  1  2  1  0
  2  3  2  0
  3  4  1  0
  4  5  2  0
  5  6  1  0
  6  7  1  0
  7  8  2  0
  8  9  1  0
  9 10  2  0
 10 11  1  0
 11 12  2  0
 12 13  1  0
 13 14  2  0
 14 15  1  0
 15 16  2  0
  5 17  1  0
 17 18  2  0
 18 19  1  0
 18  2  1  0
 16  7  1  0
 15 10  1  0
M  END
$$$$
