
     RDKit          3D

 22 24  0  0  0  0  0  0  0  0999 V2000
  115.7332  121.7243  156.7932 C   0  0  0  0  0  0  0  0  0  0  0  0
  115.8483  123.0202  157.5763 C   0  0  0  0  0  0  0  0  0  0  0  0
  116.4732  122.8240  158.8965 C   0  0  0  0  0  0  0  0  0  0  0  0
  118.0821  122.1322  159.1877 Cl  0  0  0  0  0  0  0  0  0  0  0  0
  115.6243  123.2497  159.8091 C   0  0  0  0  0  0  0  0  0  0  0  0
  114.4143  123.7420  159.1673 C   0  0  0  0  0  0  0  0  0  0  0  0
  113.2160  124.2880  159.7870 C   0  0  0  0  0  0  0  0  0  0  0  0
  112.9079  124.1973  161.0851 N   0  0  0  0  0  0  0  0  0  0  0  0
  111.7539  124.7259  161.5978 C   0  0  0  0  0  0  0  0  0  0  0  0
  111.4557  124.6279  162.9682 N   0  0  0  0  0  0  0  0  0  0  0  0
  112.4382  124.0215  163.8511 C   0  0  0  0  0  0  0  0  0  0  0  0
  112.1485  122.5607  164.0964 C   0  0  0  0  0  0  0  0  0  0  0  0
  113.2871  121.7737  163.9411 O   0  0  0  0  0  0  0  0  0  0  0  0
  110.8803  125.3717  160.7444 C   0  0  0  0  0  0  0  0  0  0  0  0
  109.6927  125.9323  161.1469 C   0  0  0  0  0  0  0  0  0  0  0  0
  108.8417  126.5684  160.2459 C   0  0  0  0  0  0  0  0  0  0  0  0
  109.1978  126.6393  158.9184 C   0  0  0  0  0  0  0  0  0  0  0  0
  110.3921  126.0803  158.4931 C   0  0  0  0  0  0  0  0  0  0  0  0
  111.2106  125.4590  159.4015 C   0  0  0  0  0  0  0  0  0  0  0  0
  112.3453  124.9238  158.9831 N   0  0  0  0  0  0  0  0  0  0  0  0
  114.5331  123.6134  157.8621 C   0  0  0  0  0  0  0  0  0  0  0  0
  113.5483  123.9889  156.8759 N   0  0  0  0  0  0  0  0  0  0  0  0
  1  2  1  0
  2  3  1  0
  3  4  1  0
  3  5  2  0
  5  6  1  0
  6  7  1  0
  7  8  2  0
  8  9  1  0
  9 10  1  0
 10 11  1  0
 11 12  1  0
 12 13  1  0
  9 14  2  0
 14 15  1  0
 15 16  2  0
 16 17  1  0
 17 18  2  0
 18 19  1  0
 19 20  2  0
  6 21  2  0
 21 22  1  0
 21  2  1  0
 20  7  1  0
 19 14  1  0
M  END
$$$$
