
     RDKit          3D

 22 24  0  0  0  0  0  0  0  0999 V2000
  127.9908  128.0401   74.8066 C   0  0  0  0  0  0  0  0  0  0  0  0
  126.5103  128.0102   75.1430 C   0  0  0  0  0  0  0  0  0  0  0  0
  125.6865  128.6564   74.1059 C   0  0  0  0  0  0  0  0  0  0  0  0
  125.6328  128.1976   72.3917 Cl  0  0  0  0  0  0  0  0  0  0  0  0
  125.0082  129.6281   74.6806 C   0  0  0  0  0  0  0  0  0  0  0  0
  125.3318  129.6855   76.0985 C   0  0  0  0  0  0  0  0  0  0  0  0
  124.8299  130.6065   77.1075 C   0  0  0  0  0  0  0  0  0  0  0  0
  125.4027  130.8405   78.2929 N   0  0  0  0  0  0  0  0  0  0  0  0
  124.8665  131.7141   79.2003 C   0  0  0  0  0  0  0  0  0  0  0  0
  125.4921  131.9525   80.4366 N   0  0  0  0  0  0  0  0  0  0  0  0
  126.7679  131.3101   80.7048 C   0  0  0  0  0  0  0  0  0  0  0  0
  126.6323  130.1832   81.6998 C   0  0  0  0  0  0  0  0  0  0  0  0
  126.4435  128.9557   81.0694 O   0  0  0  0  0  0  0  0  0  0  0  0
  123.6951  132.3723   78.8795 C   0  0  0  0  0  0  0  0  0  0  0  0
  123.0657  133.2632   79.7143 C   0  0  0  0  0  0  0  0  0  0  0  0
  121.8812  133.8978   79.3473 C   0  0  0  0  0  0  0  0  0  0  0  0
  121.3257  133.6279   78.1173 C   0  0  0  0  0  0  0  0  0  0  0  0
  121.9460  132.7327   77.2610 C   0  0  0  0  0  0  0  0  0  0  0  0
  123.1111  132.1212   77.6483 C   0  0  0  0  0  0  0  0  0  0  0  0
  123.6912  131.2639   76.8252 N   0  0  0  0  0  0  0  0  0  0  0  0
  126.2087  128.7446   76.3812 C   0  0  0  0  0  0  0  0  0  0  0  0
  126.7787  128.4733   77.6792 N   0  0  0  0  0  0  0  0  0  0  0  0
  1  2  1  0
  2  3  1  0
  3  4  1  0
  3  5  2  0
  5  6  1  0
  6  7  1  0
  7  8  2  0
  8  9  1  0
  9 10  1  0
 10 11  1  0
 11 12  1  0
 12 13  1  0
  9 14  2  0
 14 15  1  0
 15 16  2  0
 16 17  1  0
 17 18  2  0
 18 19  1  0
 19 20  2  0
  6 21  2  0
 21 22  1  0
 21  2  1  0
 20  7  1  0
 19 14  1  0
M  END
$$$$
