
     RDKit          3D

 24 26  0  0  0  0  0  0  0  0999 V2000
  -17.2222  -13.1790   -9.0413 O   0  0  0  0  0  0  0  0  0  0  0  0
  -17.2519  -13.5446   -7.6847 C   0  0  0  0  0  0  0  0  0  0  0  0
  -16.2298  -12.7933   -6.9079 C   0  0  0  0  0  0  0  0  0  0  0  0
  -15.9596  -11.4718   -7.2074 C   0  0  0  0  0  0  0  0  0  0  0  0
  -15.0248  -10.7254   -6.5238 C   0  0  0  0  0  0  0  0  0  0  0  0
  -14.3139  -11.3089   -5.4863 C   0  0  0  0  0  0  0  0  0  0  0  0
  -13.3273  -10.4498   -4.7912 C   0  0  0  0  0  0  0  0  0  0  0  0
  -13.6602  -10.3881   -3.3955 N   0  0  0  0  0  0  0  0  0  0  0  0
  -12.5228  -10.0570   -2.5885 C   0  0  0  0  0  0  0  0  0  0  0  0
  -12.6369   -8.6649   -2.0201 C   0  0  0  0  0  0  0  0  0  0  0  0
  -13.8122   -8.4640   -1.2402 N   0  0  0  0  0  0  0  0  0  0  0  0
  -13.6150   -8.2659    0.1574 C   0  0  0  0  0  0  0  0  0  0  0  0
  -14.7402   -7.4610    0.6936 C   0  0  0  0  0  0  0  0  0  0  0  0
  -15.2682   -6.3697    0.0731 C   0  0  0  0  0  0  0  0  0  0  0  0
  -16.3126   -5.6619    0.6279 C   0  0  0  0  0  0  0  0  0  0  0  0
  -16.8728   -6.0230    1.8354 C   0  0  0  0  0  0  0  0  0  0  0  0
  -18.0008   -5.2652    2.4429 C   0  0  0  0  0  0  0  0  0  0  0  0
  -18.3075   -5.8484    3.6671 O   0  0  0  0  0  0  0  0  0  0  0  0
  -16.3238   -7.1327    2.4497 C   0  0  0  0  0  0  0  0  0  0  0  0
  -15.2807   -7.8543    1.9136 C   0  0  0  0  0  0  0  0  0  0  0  0
  -14.9150   -9.2952   -1.6069 C   0  0  0  0  0  0  0  0  0  0  0  0
  -14.8327   -9.6312   -3.0835 C   0  0  0  0  0  0  0  0  0  0  0  0
  -14.5732  -12.6127   -5.1827 C   0  0  0  0  0  0  0  0  0  0  0  0
  -15.5106  -13.3508   -5.8730 C   0  0  0  0  0  0  0  0  0  0  0  0
  1  2  1  0
  2  3  1  0
  3  4  2  0
  4  5  1  0
  5  6  2  0
  6  7  1  0
  7  8  1  0
  8  9  1  0
  9 10  1  0
 10 11  1  0
 11 12  1  0
 12 13  1  0
 13 14  2  0
 14 15  1  0
 15 16  2  0
 16 17  1  0
 17 18  1  0
 16 19  1  0
 19 20  2  0
 11 21  1  0
 21 22  1  0
  6 23  1  0
 23 24  2  0
 24  3  1  0
 22  8  1  0
 20 13  1  0
M  END
$$$$
