
     RDKit          3D

 19 19  0  0  0  0  0  0  0  0999 V2000
   16.2723   46.9644   25.9365 C   0  0  0  0  0  0  0  0  0  0  0  0
   17.6126   46.3258   25.4929 C   0  0  0  0  0  0  0  0  0  0  0  0
   18.5424   46.6593   26.6298 C   0  0  0  0  0  0  0  0  0  0  0  0
   17.3105   44.8436   25.5436 C   0  0  0  0  0  0  0  0  0  0  0  0
   17.9374   46.8703   24.1833 C   0  0  0  0  0  0  0  0  0  0  0  0
   16.8894   47.3412   23.2496 C   0  0  0  0  0  0  0  0  0  0  0  0
   16.2699   48.6600   23.5289 C   0  0  0  0  0  0  0  0  0  0  0  0
   15.7013   46.3421   23.2189 C   0  0  0  0  0  0  0  0  0  0  0  0
   17.3882   47.3128   21.9251 N   0  0  0  0  0  0  0  0  0  0  0  0
   17.8479   48.4284   21.2570 C   0  0  0  0  0  0  0  0  0  0  0  0
   19.2191   48.9321   21.5962 C   0  0  1  0  0  0  0  0  0  0  0  0
   20.1002   47.8493   21.3094 O   0  0  0  0  0  0  0  0  0  0  0  0
   19.6823   50.0358   20.6944 C   0  0  0  0  0  0  0  0  0  0  0  0
   18.9281   51.1223   20.3589 C   0  0  0  0  0  0  0  0  0  0  0  0
   19.4062   52.1249   19.5124 C   0  0  0  0  0  0  0  0  0  0  0  0
   20.6709   52.0476   18.9825 C   0  0  0  0  0  0  0  0  0  0  0  0
   21.2489   53.3196   17.9221 Cl  0  0  0  0  0  0  0  0  0  0  0  0
   21.4517   50.9539   19.3100 C   0  0  0  0  0  0  0  0  0  0  0  0
   20.9630   49.9757   20.1460 C   0  0  0  0  0  0  0  0  0  0  0  0
  1  2  1  0
  2  3  1  0
  2  4  1  0
  2  5  1  0
  5  6  1  0
  6  7  1  0
  6  8  1  0
  6  9  1  0
  9 10  1  0
 10 11  1  0
 11 12  1  6
 11 13  1  0
 13 14  2  0
 14 15  1  0
 15 16  2  0
 16 17  1  0
 16 18  1  0
 18 19  2  0
 19 13  1  0
M  END
$$$$
