
     RDKit          3D

 19 19  0  0  0  0  0  0  0  0999 V2000
   49.1576   32.8876   27.0939 C   0  0  0  0  0  0  0  0  0  0  0  0
   48.1246   31.7327   27.0991 C   0  0  0  0  0  0  0  0  0  0  0  0
   47.2344   32.0763   28.2644 C   0  0  0  0  0  0  0  0  0  0  0  0
   47.3493   31.9709   25.8211 C   0  0  0  0  0  0  0  0  0  0  0  0
   48.8713   30.4862   27.1742 C   0  0  0  0  0  0  0  0  0  0  0  0
   48.5246   29.3146   26.3382 C   0  0  0  0  0  0  0  0  0  0  0  0
   49.3882   28.1141   26.4552 C   0  0  0  0  0  0  0  0  0  0  0  0
   48.5678   29.6906   24.8325 C   0  0  0  0  0  0  0  0  0  0  0  0
   47.1720   28.9598   26.5586 N   0  0  0  0  0  0  0  0  0  0  0  0
   46.6469   27.7213   26.2542 C   0  0  0  0  0  0  0  0  0  0  0  0
   46.0914   26.9005   27.3797 C   0  0  1  0  0  0  0  0  0  0  0  0
   45.0955   27.7190   27.9874 O   0  0  0  0  0  0  0  0  0  0  0  0
   45.3420   25.6895   26.9130 C   0  0  0  0  0  0  0  0  0  0  0  0
   45.5542   25.0674   25.7173 C   0  0  0  0  0  0  0  0  0  0  0  0
   44.8274   23.9402   25.3279 C   0  0  0  0  0  0  0  0  0  0  0  0
   43.8608   23.4140   26.1494 C   0  0  0  0  0  0  0  0  0  0  0  0
   42.9616   21.9975   25.6382 Cl  0  0  0  0  0  0  0  0  0  0  0  0
   43.6300   24.0300   27.3661 C   0  0  0  0  0  0  0  0  0  0  0  0
   44.3565   25.1402   27.7325 C   0  0  0  0  0  0  0  0  0  0  0  0
  1  2  1  0
  2  3  1  0
  2  4  1  0
  2  5  1  0
  5  6  1  0
  6  7  1  0
  6  8  1  0
  6  9  1  0
  9 10  1  0
 10 11  1  0
 11 12  1  6
 11 13  1  0
 13 14  2  0
 14 15  1  0
 15 16  2  0
 16 17  1  0
 16 18  1  0
 18 19  2  0
 19 13  1  0
M  END
$$$$
