
     RDKit          3D

 37 42  0  0  0  0  0  0  0  0999 V2000
  125.3223  136.0678  145.4716 C   0  0  0  0  0  0  0  0  0  0  0  0
  126.3550  136.4513  146.3611 O   0  0  0  0  0  0  0  0  0  0  0  0
  126.3541  137.7094  146.9790 C   0  0  0  0  0  0  0  0  0  0  0  0
  125.1816  138.3806  147.2000 C   0  0  0  0  0  0  0  0  0  0  0  0
  125.2098  139.6334  147.8180 C   0  0  0  0  0  0  0  0  0  0  0  0
  126.3928  140.2026  148.2072 C   0  0  0  0  0  0  0  0  0  0  0  0
  126.4266  141.4922  148.8432 N   0  0  0  0  0  0  0  0  0  0  0  0
  127.5905  142.0300  149.3980 C   0  0  0  0  0  0  0  0  0  0  0  0
  128.6837  141.4196  149.1464 O   0  0  0  0  0  0  0  0  0  0  0  0
  127.6255  143.2029  150.2155 C   0  0  0  0  0  0  0  0  0  0  0  0
  127.0803  144.4424  149.9631 C   0  0  0  0  0  0  0  0  0  0  0  0
  126.3209  144.9519  148.8389 C   0  0  0  0  0  0  0  0  0  0  0  0
  125.0009  144.5500  148.5985 C   0  0  0  0  0  0  0  0  0  0  0  0
  124.2726  145.0380  147.5544 C   0  0  0  0  0  0  0  0  0  0  0  0
  124.8023  145.9539  146.6819 C   0  0  0  0  0  0  0  0  0  0  0  0
  124.0885  146.4734  145.6056 O   0  0  0  0  0  0  0  0  0  0  0  0
  122.7450  146.9038  145.7318 C   0  0  0  0  0  0  0  0  0  0  0  0
  126.0943  146.3775  146.8784 C   0  0  0  0  0  0  0  0  0  0  0  0
  126.8246  145.8853  147.9290 C   0  0  0  0  0  0  0  0  0  0  0  0
  127.3860  145.2588  151.0672 C   0  0  0  0  0  0  0  0  0  0  0  0
  128.0953  144.4545  151.9100 C   0  0  0  0  0  0  0  0  0  0  0  0
  128.2491  143.2379  151.4301 N   0  0  0  0  0  0  0  0  0  0  0  0
  128.9536  142.5575  152.3466 C   0  0  0  0  0  0  0  0  0  0  0  0
  129.2219  143.4223  153.4114 C   0  0  0  0  0  0  0  0  0  0  0  0
  129.9511  143.1109  154.6324 C   0  0  0  0  0  0  0  0  0  0  0  0
  130.1039  144.1225  155.5570 C   0  0  0  0  0  0  0  0  0  0  0  0
  130.7784  143.8830  156.7281 C   0  0  0  0  0  0  0  0  0  0  0  0
  131.3157  142.6288  157.0031 C   0  0  0  0  0  0  0  0  0  0  0  0
  131.1573  141.6255  156.0725 C   0  0  0  0  0  0  0  0  0  0  0  0
  130.4746  141.8568  154.8807 C   0  0  0  0  0  0  0  0  0  0  0  0
  128.6771  144.5951  153.1138 N   0  0  0  0  0  0  0  0  0  0  0  0
  128.6942  145.7919  153.9102 C   0  0  0  0  0  0  0  0  0  0  0  0
  127.4715  146.6283  153.5887 C   0  0  0  0  0  0  0  0  0  0  0  0
  127.6540  147.3723  152.2798 C   0  0  0  0  0  0  0  0  0  0  0  0
  126.9498  146.6744  151.1435 C   0  0  0  0  0  0  0  0  0  0  0  0
  127.5627  139.5301  147.9853 C   0  0  0  0  0  0  0  0  0  0  0  0
  127.5450  138.2803  147.3698 C   0  0  0  0  0  0  0  0  0  0  0  0
  1  2  1  0
  2  3  1  0
  3  4  2  0
  4  5  1  0
  5  6  2  0
  6  7  1  0
  7  8  1  0
  8  9  2  0
  8 10  1  0
 10 11  2  0
 11 12  1  0
 12 13  2  0
 13 14  1  0
 14 15  2  0
 15 16  1  0
 16 17  1  0
 15 18  1  0
 18 19  2  0
 11 20  1  0
 20 21  2  0
 21 22  1  0
 22 23  1  0
 23 24  2  0
 24 25  1  0
 25 26  2  0
 26 27  1  0
 27 28  2  0
 28 29  1  0
 29 30  2  0
 24 31  1  0
 31 32  1  0
 32 33  1  0
 33 34  1  0
 34 35  1  0
  6 36  1  0
 36 37  2  0
 37  3  1  0
 22 10  1  0
 30 25  1  0
 19 12  1  0
 35 20  1  0
 31 21  1  0
M  END
$$$$
