
     RDKit          3D

 22 23  0  0  0  0  0  0  0  0999 V2000
  151.4374  153.3154  145.9564 C   0  0  0  0  0  0  0  0  0  0  0  0
  150.8193  154.2777  146.9543 C   0  0  0  0  0  0  0  0  0  0  0  0
  151.7604  154.3037  148.0921 N   0  0  0  0  0  0  0  0  0  0  0  0
  151.2023  155.0523  149.1750 C   0  0  0  0  0  0  0  0  0  0  0  0
  151.7708  156.4366  149.2341 C   0  0  0  0  0  0  0  0  0  0  0  0
  152.4242  156.8768  148.1057 C   0  0  0  0  0  0  0  0  0  0  0  0
  152.9765  158.1271  148.0055 C   0  0  0  0  0  0  0  0  0  0  0  0
  152.8699  158.9604  149.0674 C   0  0  0  0  0  0  0  0  0  0  0  0
  152.2073  158.5224  150.2199 C   0  0  0  0  0  0  0  0  0  0  0  0
  151.6395  157.2737  150.3623 C   0  0  0  0  0  0  0  0  0  0  0  0
  150.9934  156.8657  151.5070 N   0  0  0  0  0  0  0  0  0  0  0  0
  151.1516  156.2685  152.6068 C   0  0  0  0  0  0  0  0  0  0  0  0
  149.9924  156.1737  153.3913 O   0  0  0  0  0  0  0  0  0  0  0  0
  152.3082  155.6869  153.1693 N   0  0  0  0  0  0  0  0  0  0  0  0
  153.2268  154.7092  152.6408 C   0  0  0  0  0  0  0  0  0  0  0  0
  154.5669  155.2936  152.3040 C   0  0  0  0  0  0  0  0  0  0  0  0
  155.0844  155.1693  151.1010 C   0  0  0  0  0  0  0  0  0  0  0  0
  156.6956  155.9562  150.9488 Cl  0  0  0  0  0  0  0  0  0  0  0  0
  154.5541  154.5475  149.8810 C   0  0  0  0  0  0  0  0  0  0  0  0
  154.0398  153.4125  149.5431 C   0  0  0  0  0  0  0  0  0  0  0  0
  153.5018  152.7777  148.3149 C   0  0  0  0  0  0  0  0  0  0  0  0
  152.0391  152.9832  148.3446 N   0  0  0  0  0  0  0  0  0  0  0  0
  1  2  1  0
  2  3  1  0
  3  4  1  0
  4  5  1  0
  5  6  2  0
  6  7  1  0
  7  8  2  0
  8  9  1  0
  9 10  2  0
 10 11  1  0
 11 12  2  0
 12 13  1  0
 12 14  1  0
 14 15  1  0
 15 16  1  0
 16 17  2  0
 17 18  1  0
 17 19  1  0
 19 20  2  0
 20 21  1  0
 21 22  1  0
 22  3  1  0
 10  5  1  0
M  END
$$$$
