
     RDKit          3D

 26 28  0  0  0  0  0  0  0  0999 V2000
   45.4538   40.2186   27.5786 C   0  0  0  0  0  0  0  0  0  0  0  0
   44.9008   40.1382   28.9563 C   0  0  0  0  0  0  0  0  0  0  0  0
   43.4224   40.3428   29.0914 C   0  0  1  0  0  0  0  0  0  0  0  0
   42.8282   39.7377   30.3007 C   0  0  0  0  0  0  0  0  0  0  0  0
   42.3586   40.4035   31.2502 O   0  0  0  0  0  0  0  0  0  0  0  0
   42.7601   38.3139   30.4463 N   0  0  0  0  0  0  0  0  0  0  0  0
   42.1626   37.7012   31.5761 C   0  0  0  0  0  0  0  0  0  0  0  0
   41.9884   38.4326   32.7252 C   0  0  0  0  0  0  0  0  0  0  0  0
   41.3961   37.8008   33.8231 C   0  0  0  0  0  0  0  0  0  0  0  0
   40.9854   36.4805   33.7896 C   0  0  0  0  0  0  0  0  0  0  0  0
   41.1725   35.7764   32.6287 C   0  0  0  0  0  0  0  0  0  0  0  0
   40.7854   34.4509   32.5241 O   0  0  0  0  0  0  0  0  0  0  0  0
   40.9867   33.7064   31.3468 C   0  0  0  0  0  0  0  0  0  0  0  0
   41.7570   36.3837   31.5308 C   0  0  0  0  0  0  0  0  0  0  0  0
   42.9448   41.6438   28.7539 N   0  0  0  0  0  0  0  0  0  0  0  0
   42.1311   41.8483   27.7157 C   0  0  0  0  0  0  0  0  0  0  0  0
   41.7605   40.8904   26.9995 O   0  0  0  0  0  0  0  0  0  0  0  0
   41.6615   43.0790   27.3741 N   0  0  0  0  0  0  0  0  0  0  0  0
   42.0020   44.1630   28.0795 C   0  0  0  0  0  0  0  0  0  0  0  0
   41.5294   45.4323   27.7428 C   0  0  0  0  0  0  0  0  0  0  0  0
   41.8861   46.5400   28.4754 C   0  0  0  0  0  0  0  0  0  0  0  0
   42.7262   46.3483   29.5520 C   0  0  0  0  0  0  0  0  0  0  0  0
   43.2099   45.1151   29.9118 C   0  0  0  0  0  0  0  0  0  0  0  0
   42.8384   44.0121   29.1606 C   0  0  0  0  0  0  0  0  0  0  0  0
   43.2878   42.7593   29.4701 C   0  0  0  0  0  0  0  0  0  0  0  0
   44.0640   42.5963   30.4682 O   0  0  0  0  0  0  0  0  0  0  0  0
  1  2  1  0
  3  2  1  1
  3  4  1  0
  4  5  2  0
  4  6  1  0
  6  7  1  0
  7  8  2  0
  8  9  1  0
  9 10  2  0
 10 11  1  0
 11 12  1  0
 12 13  1  0
 11 14  2  0
  3 15  1  0
 15 16  1  0
 16 17  2  0
 16 18  1  0
 18 19  1  0
 19 20  2  0
 20 21  1  0
 21 22  2  0
 22 23  1  0
 23 24  2  0
 24 25  1  0
 25 26  2  0
 14  7  1  0
 25 15  1  0
 24 19  1  0
M  END
$$$$
