
     RDKit          3D

 26 28  0  0  0  0  0  0  0  0999 V2000
    9.4378   46.2441   24.1593 C   0  0  0  0  0  0  0  0  0  0  0  0
    9.8262   45.8672   22.7747 C   0  0  0  0  0  0  0  0  0  0  0  0
   10.6443   44.6199   22.6307 C   0  0  1  0  0  0  0  0  0  0  0  0
   10.6332   44.0331   21.2752 C   0  0  0  0  0  0  0  0  0  0  0  0
   10.8202   44.6961   20.2309 O   0  0  0  0  0  0  0  0  0  0  0  0
   10.4004   42.6316   21.0885 N   0  0  0  0  0  0  0  0  0  0  0  0
   10.3999   42.0341   19.8033 C   0  0  0  0  0  0  0  0  0  0  0  0
   10.0329   42.7833   18.7126 C   0  0  0  0  0  0  0  0  0  0  0  0
   10.0423   42.1662   17.4578 C   0  0  0  0  0  0  0  0  0  0  0  0
   10.4045   40.8430   17.2820 C   0  0  0  0  0  0  0  0  0  0  0  0
   10.7659   40.1209   18.3894 C   0  0  0  0  0  0  0  0  0  0  0  0
   11.1399   38.7914   18.2875 O   0  0  0  0  0  0  0  0  0  0  0  0
   11.7135   38.2665   17.1144 C   0  0  0  0  0  0  0  0  0  0  0  0
   10.7631   40.7135   19.6403 C   0  0  0  0  0  0  0  0  0  0  0  0
   11.9102   44.6312   23.2879 N   0  0  0  0  0  0  0  0  0  0  0  0
   12.3514   43.5821   23.9852 C   0  0  0  0  0  0  0  0  0  0  0  0
   11.6562   42.5453   24.0832 O   0  0  0  0  0  0  0  0  0  0  0  0
   13.5550   43.5682   24.6201 N   0  0  0  0  0  0  0  0  0  0  0  0
   14.3678   44.6292   24.5725 C   0  0  0  0  0  0  0  0  0  0  0  0
   15.6053   44.6315   25.2178 C   0  0  0  0  0  0  0  0  0  0  0  0
   16.4329   45.7283   25.1621 C   0  0  0  0  0  0  0  0  0  0  0  0
   15.9939   46.8220   24.4461 C   0  0  0  0  0  0  0  0  0  0  0  0
   14.7835   46.8546   23.7994 C   0  0  0  0  0  0  0  0  0  0  0  0
   13.9648   45.7393   23.8680 C   0  0  0  0  0  0  0  0  0  0  0  0
   12.7489   45.7127   23.2448 C   0  0  0  0  0  0  0  0  0  0  0  0
   12.3553   46.7307   22.5861 O   0  0  0  0  0  0  0  0  0  0  0  0
  1  2  1  0
  3  2  1  6
  3  4  1  0
  4  5  2  0
  4  6  1  0
  6  7  1  0
  7  8  2  0
  8  9  1  0
  9 10  2  0
 10 11  1  0
 11 12  1  0
 12 13  1  0
 11 14  2  0
  3 15  1  0
 15 16  1  0
 16 17  2  0
 16 18  1  0
 18 19  1  0
 19 20  2  0
 20 21  1  0
 21 22  2  0
 22 23  1  0
 23 24  2  0
 24 25  1  0
 25 26  2  0
 14  7  1  0
 25 15  1  0
 24 19  1  0
M  END
$$$$
