
     RDKit          3D

 33 36  0  0  0  0  0  0  0  0999 V2000
   10.2678   25.7506   -9.1476 C   0  0  0  0  0  0  0  0  0  0  0  0
    9.3189   26.6202   -8.6855 O   0  0  0  0  0  0  0  0  0  0  0  0
    9.3471   26.8311   -7.3202 C   0  0  0  0  0  0  0  0  0  0  0  0
    9.0564   28.2583   -7.0053 C   0  0  0  0  0  0  0  0  0  0  0  0
    7.6392   28.5185   -7.2701 N   0  0  0  0  0  0  0  0  0  0  0  0
    7.0975   29.8082   -7.0435 C   0  0  0  0  0  0  0  0  0  0  0  0
    7.8966   30.7748   -6.9779 O   0  0  0  0  0  0  0  0  0  0  0  0
    5.6672   30.0625   -6.8843 C   0  0  0  0  0  0  0  0  0  0  0  0
    5.0694   31.2715   -6.5810 C   0  0  0  0  0  0  0  0  0  0  0  0
    5.8106   32.4723   -6.3774 N   0  0  0  0  0  0  0  0  0  0  0  0
    3.7378   31.1067   -6.5190 N   0  0  0  0  0  0  0  0  0  0  0  0
    2.7756   32.1685   -6.2207 C   0  0  0  0  0  0  0  0  0  0  0  0
    3.4770   33.1110   -5.2510 C   0  0  0  0  0  0  0  0  0  0  0  0
    3.8322   32.3948   -3.9898 C   0  0  0  0  0  0  0  0  0  0  0  0
    5.0967   31.8732   -3.8871 C   0  0  0  0  0  0  0  0  0  0  0  0
    5.4413   31.2025   -2.7156 C   0  0  0  0  0  0  0  0  0  0  0  0
    4.5605   31.0522   -1.6757 C   0  0  0  0  0  0  0  0  0  0  0  0
    4.9471   30.3816   -0.5383 O   0  0  0  0  0  0  0  0  0  0  0  0
    6.3222   30.1594   -0.3078 C   0  0  0  0  0  0  0  0  0  0  0  0
    3.2972   31.5792   -1.7910 C   0  0  0  0  0  0  0  0  0  0  0  0
    2.3841   31.4427   -0.7550 O   0  0  0  0  0  0  0  0  0  0  0  0
    1.1247   32.0499   -0.7730 C   0  0  0  0  0  0  0  0  0  0  0  0
    2.9422   32.2522   -2.9592 C   0  0  0  0  0  0  0  0  0  0  0  0
    3.4353   29.8212   -6.7729 C   0  0  0  0  0  0  0  0  0  0  0  0
    2.2343   29.1717   -6.8246 N   0  0  0  0  0  0  0  0  0  0  0  0
    2.2828   27.8529   -7.1113 C   0  0  0  0  0  0  0  0  0  0  0  0
    1.0889   27.1483   -7.1753 C   0  0  0  0  0  0  0  0  0  0  0  0
    1.0605   25.8069   -7.4612 C   0  0  0  0  0  0  0  0  0  0  0  0
    2.2522   25.1451   -7.6905 C   0  0  0  0  0  0  0  0  0  0  0  0
    3.4515   25.8107   -7.6353 C   0  0  0  0  0  0  0  0  0  0  0  0
    3.4681   27.1794   -7.3426 C   0  0  0  0  0  0  0  0  0  0  0  0
    4.6333   27.8499   -7.2838 N   0  0  0  0  0  0  0  0  0  0  0  0
    4.6226   29.1653   -7.0006 C   0  0  0  0  0  0  0  0  0  0  0  0
  1  2  1  0
  2  3  1  0
  3  4  1  0
  4  5  1  0
  5  6  1  0
  6  7  2  0
  6  8  1  0
  8  9  2  0
  9 10  1  0
  9 11  1  0
 11 12  1  0
 12 13  1  0
 13 14  1  0
 14 15  2  0
 15 16  1  0
 16 17  2  0
 17 18  1  0
 18 19  1  0
 17 20  1  0
 20 21  1  0
 21 22  1  0
 20 23  2  0
 11 24  1  0
 24 25  2  0
 25 26  1  0
 26 27  2  0
 27 28  1  0
 28 29  2  0
 29 30  1  0
 30 31  2  0
 31 32  1  0
 32 33  2  0
 33  8  1  0
 23 14  1  0
 33 24  1  0
 31 26  1  0
M  END
$$$$
