
     RDKit          3D

 29 31  0  0  0  0  0  0  0  0999 V2000
   43.4767   30.0051   23.3923 C   0  0  0  0  0  0  0  0  0  0  0  0
   44.2367   31.1900   23.6012 O   0  0  0  0  0  0  0  0  0  0  0  0
   44.3113   32.1546   22.6092 C   0  0  0  0  0  0  0  0  0  0  0  0
   43.2483   32.7203   22.2550 O   0  0  0  0  0  0  0  0  0  0  0  0
   45.5767   32.5445   21.9541 C   0  0  0  0  0  0  0  0  0  0  0  0
   46.7862   31.9747   22.5771 C   0  0  0  0  0  0  0  0  0  0  0  0
   47.2026   30.6618   22.0438 C   0  0  0  0  0  0  0  0  0  0  0  0
   47.2416   29.6029   22.9387 C   0  0  0  0  0  0  0  0  0  0  0  0
   47.6393   28.3514   22.4791 C   0  0  0  0  0  0  0  0  0  0  0  0
   47.9863   28.1714   21.1619 C   0  0  0  0  0  0  0  0  0  0  0  0
   47.9386   29.2355   20.2967 C   0  0  0  0  0  0  0  0  0  0  0  0
   48.2752   29.1136   18.9920 F   0  0  0  0  0  0  0  0  0  0  0  0
   47.5521   30.4693   20.7255 C   0  0  0  0  0  0  0  0  0  0  0  0
   45.5016   32.1455   20.4850 C   0  0  0  0  0  0  0  0  0  0  0  0
   44.7453   33.2064   19.7082 C   0  0  0  0  0  0  0  0  0  0  0  0
   45.5569   34.4048   19.5535 N   0  0  0  0  0  0  0  0  0  0  0  0
   44.5959   35.5094   19.4137 C   0  0  0  0  0  0  0  0  0  0  0  0
   43.8619   35.4747   18.1400 C   0  0  0  0  0  0  0  0  0  0  0  0
   42.6220   36.0127   18.0030 C   0  0  0  0  0  0  0  0  0  0  0  0
   41.9441   36.0398   16.8057 C   0  0  0  0  0  0  0  0  0  0  0  0
   40.6486   36.6149   16.6588 C   0  0  0  0  0  0  0  0  0  0  0  0
   39.6028   37.0775   16.5442 N   0  0  0  0  0  0  0  0  0  0  0  0
   42.5657   35.4881   15.6986 C   0  0  0  0  0  0  0  0  0  0  0  0
   43.8100   34.9395   15.8050 C   0  0  0  0  0  0  0  0  0  0  0  0
   44.5103   34.9096   17.0312 C   0  0  0  0  0  0  0  0  0  0  0  0
   45.7004   34.3716   17.0864 O   0  0  0  0  0  0  0  0  0  0  0  0
   46.8881   33.8953   16.9965 C   0  0  0  0  0  0  0  0  0  0  0  0
   46.3951   34.5921   20.7359 C   0  0  0  0  0  0  0  0  0  0  0  0
   45.6619   34.0539   21.9337 C   0  0  0  0  0  0  0  0  0  0  0  0
  1  2  1  0
  2  3  1  0
  3  4  2  0
  3  5  1  0
  5  6  1  0
  6  7  1  0
  7  8  2  0
  8  9  1  0
  9 10  2  0
 10 11  1  0
 11 12  1  0
 11 13  2  0
  5 14  1  0
 14 15  1  0
 15 16  1  0
 16 17  1  0
 17 18  1  0
 18 19  2  0
 19 20  1  0
 20 21  1  0
 21 22  3  0
 20 23  2  0
 23 24  1  0
 24 25  2  0
 25 26  1  0
 26 27  1  0
 16 28  1  0
 28 29  1  0
 29  5  1  0
 13  7  1  0
 25 18  1  0
M  END
$$$$
