
     RDKit          3D

 29 31  0  0  0  0  0  0  0  0999 V2000
   25.5105   67.1879   14.4032 C   0  0  0  0  0  0  0  0  0  0  0  0
   24.2915   67.6111   15.0035 O   0  0  0  0  0  0  0  0  0  0  0  0
   23.0885   67.4339   14.3389 C   0  0  0  0  0  0  0  0  0  0  0  0
   23.1113   66.8703   13.2176 O   0  0  0  0  0  0  0  0  0  0  0  0
   21.7896   67.8755   14.8865 C   0  0  0  0  0  0  0  0  0  0  0  0
   20.9693   66.7914   15.4589 C   0  0  0  0  0  0  0  0  0  0  0  0
   21.3024   66.4260   16.8507 C   0  0  0  0  0  0  0  0  0  0  0  0
   22.3745   65.5659   17.0359 C   0  0  0  0  0  0  0  0  0  0  0  0
   22.7144   65.1880   18.3311 C   0  0  0  0  0  0  0  0  0  0  0  0
   21.9987   65.6603   19.4046 C   0  0  0  0  0  0  0  0  0  0  0  0
   20.9426   66.5108   19.1941 C   0  0  0  0  0  0  0  0  0  0  0  0
   20.2020   66.9998   20.2154 F   0  0  0  0  0  0  0  0  0  0  0  0
   20.5926   66.8936   17.9345 C   0  0  0  0  0  0  0  0  0  0  0  0
   22.0492   68.9509   15.9351 C   0  0  0  0  0  0  0  0  0  0  0  0
   22.2431   70.2911   15.2514 C   0  0  0  0  0  0  0  0  0  0  0  0
   20.9750   70.7981   14.7479 N   0  0  0  0  0  0  0  0  0  0  0  0
   21.3264   71.6667   13.6144 C   0  0  0  0  0  0  0  0  0  0  0  0
   21.8826   72.9617   14.0336 C   0  0  0  0  0  0  0  0  0  0  0  0
   21.3456   73.6867   15.0493 C   0  0  0  0  0  0  0  0  0  0  0  0
   21.8861   74.8722   15.4923 C   0  0  0  0  0  0  0  0  0  0  0  0
   21.3301   75.6270   16.5656 C   0  0  0  0  0  0  0  0  0  0  0  0
   20.8854   76.2355   17.4331 N   0  0  0  0  0  0  0  0  0  0  0  0
   23.0286   75.3363   14.8634 C   0  0  0  0  0  0  0  0  0  0  0  0
   23.5905   74.6312   13.8399 C   0  0  0  0  0  0  0  0  0  0  0  0
   23.0402   73.4137   13.3818 C   0  0  0  0  0  0  0  0  0  0  0  0
   23.6118   72.7729   12.3961 O   0  0  0  0  0  0  0  0  0  0  0  0
   24.3071   72.1804   11.4955 C   0  0  0  0  0  0  0  0  0  0  0  0
   20.1352   69.6855   14.3089 C   0  0  0  0  0  0  0  0  0  0  0  0
   21.0246   68.5874   13.7939 C   0  0  0  0  0  0  0  0  0  0  0  0
  1  2  1  0
  2  3  1  0
  3  4  2  0
  3  5  1  0
  5  6  1  0
  6  7  1  0
  7  8  2  0
  8  9  1  0
  9 10  2  0
 10 11  1  0
 11 12  1  0
 11 13  2  0
  5 14  1  0
 14 15  1  0
 15 16  1  0
 16 17  1  0
 17 18  1  0
 18 19  2  0
 19 20  1  0
 20 21  1  0
 21 22  3  0
 20 23  2  0
 23 24  1  0
 24 25  2  0
 25 26  1  0
 26 27  1  0
 16 28  1  0
 28 29  1  0
 29  5  1  0
 13  7  1  0
 25 18  1  0
M  END
$$$$
