
     RDKit          3D

 12 12  0  0  0  0  0  0  0  0999 V2000
  127.2016  135.4250  143.9023 C   0  0  0  0  0  0  0  0  0  0  0  0
  127.5804  136.7723  143.6947 O   0  0  0  0  0  0  0  0  0  0  0  0
  128.0451  137.1814  142.4387 C   0  0  0  0  0  0  0  0  0  0  0  0
  128.1210  136.2562  141.4157 C   0  0  0  0  0  0  0  0  0  0  0  0
  128.5800  136.6703  140.1832 C   0  0  0  0  0  0  0  0  0  0  0  0
  128.6480  135.7191  139.1661 O   0  0  0  0  0  0  0  0  0  0  0  0
  128.9724  137.9609  139.9016 C   0  0  0  0  0  0  0  0  0  0  0  0
  129.4292  138.3517  138.6578 O   0  0  0  0  0  0  0  0  0  0  0  0
  129.9352  139.6155  138.3602 C   0  0  0  0  0  0  0  0  0  0  0  0
  128.8838  138.8657  140.9514 C   0  0  0  0  0  0  0  0  0  0  0  0
  128.4278  138.4817  142.1982 C   0  0  0  0  0  0  0  0  0  0  0  0
  128.3387  139.3844  143.2481 O   0  0  0  0  0  0  0  0  0  0  0  0
  1  2  1  0
  2  3  1  0
  3  4  2  0
  4  5  1  0
  5  6  1  0
  5  7  2  0
  7  8  1  0
  8  9  1  0
  7 10  1  0
 10 11  2  0
 11 12  1  0
 11  3  1  0
M  END
$$$$
