
     RDKit          3D

 12 12  0  0  0  0  0  0  0  0999 V2000
  129.8776  139.4347  138.2716 C   0  0  0  0  0  0  0  0  0  0  0  0
  129.4679  139.6301  139.6117 O   0  0  0  0  0  0  0  0  0  0  0  0
  128.9787  138.5501  140.3568 C   0  0  0  0  0  0  0  0  0  0  0  0
  128.8948  137.3059  139.7624 C   0  0  0  0  0  0  0  0  0  0  0  0
  128.4116  136.2499  140.5057 C   0  0  0  0  0  0  0  0  0  0  0  0
  128.3360  135.0039  139.8848 O   0  0  0  0  0  0  0  0  0  0  0  0
  128.0024  136.3551  141.8174 C   0  0  0  0  0  0  0  0  0  0  0  0
  127.5215  135.2815  142.5416 O   0  0  0  0  0  0  0  0  0  0  0  0
  127.1223  135.3400  143.8755 C   0  0  0  0  0  0  0  0  0  0  0  0
  128.0997  137.6189  142.3848 C   0  0  0  0  0  0  0  0  0  0  0  0
  128.5797  138.6973  141.6661 C   0  0  0  0  0  0  0  0  0  0  0  0
  128.6776  139.9606  142.2315 O   0  0  0  0  0  0  0  0  0  0  0  0
  1  2  1  0
  2  3  1  0
  3  4  2  0
  4  5  1  0
  5  6  1  0
  5  7  2  0
  7  8  1  0
  8  9  1  0
  7 10  1  0
 10 11  2  0
 11 12  1  0
 11  3  1  0
M  END
$$$$
