
     RDKit          3D

 22 24  0  0  0  0  0  0  0  0999 V2000
  153.1282  151.9485  146.3803 F   0  0  0  0  0  0  0  0  0  0  0  0
  154.4169  151.5672  146.3003 C   0  0  0  0  0  0  0  0  0  0  0  0
  155.4194  152.5145  146.4710 C   0  0  0  0  0  0  0  0  0  0  0  0
  154.9410  154.3418  146.8085 Br  0  0  0  0  0  0  0  0  0  0  0  0
  156.7554  152.1831  146.4009 C   0  0  0  0  0  0  0  0  0  0  0  0
  157.0806  150.8551  146.1497 C   0  0  0  0  0  0  0  0  0  0  0  0
  156.0761  149.9438  145.9857 C   0  0  0  0  0  0  0  0  0  0  0  0
  154.7350  150.2536  146.0526 C   0  0  0  0  0  0  0  0  0  0  0  0
  153.6361  149.2738  145.8795 C   0  0  0  0  0  0  0  0  0  0  0  0
  153.4757  148.8489  144.5247 N   0  0  0  0  0  0  0  0  0  0  0  0
  152.9751  149.9086  143.6631 C   0  0  0  0  0  0  0  0  0  0  0  0
  151.5536  149.6035  143.2036 C   0  0  0  0  0  0  0  0  0  0  0  0
  151.5501  148.3829  142.3991 N   0  0  0  0  0  0  0  0  0  0  0  0
  150.1785  147.9804  142.2542 C   0  0  0  0  0  0  0  0  0  0  0  0
  149.8868  147.2342  141.0022 C   0  0  0  0  0  0  0  0  0  0  0  0
  150.7799  146.2352  140.6016 C   0  0  0  0  0  0  0  0  0  0  0  0
  150.5793  145.5190  139.4548 C   0  0  0  0  0  0  0  0  0  0  0  0
  149.4609  145.7923  138.6727 C   0  0  0  0  0  0  0  0  0  0  0  0
  148.5982  146.7733  139.0821 C   0  0  0  0  0  0  0  0  0  0  0  0
  148.7856  147.5124  140.2427 C   0  0  0  0  0  0  0  0  0  0  0  0
  152.3598  147.3713  143.0149 C   0  0  0  0  0  0  0  0  0  0  0  0
  152.5430  147.7478  144.4785 C   0  0  0  0  0  0  0  0  0  0  0  0
  1  2  1  0
  2  3  2  0
  3  4  1  0
  3  5  1  0
  5  6  2  0
  6  7  1  0
  7  8  2  0
  8  9  1  0
  9 10  1  0
 10 11  1  0
 11 12  1  0
 12 13  1  0
 13 14  1  0
 14 15  1  0
 15 16  2  0
 16 17  1  0
 17 18  2  0
 18 19  1  0
 19 20  2  0
 13 21  1  0
 21 22  1  0
  8  2  1  0
 22 10  1  0
 20 15  1  0
M  END
$$$$
