
     RDKit          3D

 25 26  0  0  0  0  0  0  0  0999 V2000
   17.1528  -18.6474  -20.2555 C   0  0  0  0  0  0  0  0  0  0  0  0
   18.1481  -19.6067  -20.8457 C   0  0  0  0  0  0  0  0  0  0  0  0
   18.6928  -20.3929  -19.8312 O   0  0  0  0  0  0  0  0  0  0  0  0
   18.4871  -21.7418  -19.6388 C   0  0  0  0  0  0  0  0  0  0  0  0
   17.5042  -22.4677  -20.2870 C   0  0  0  0  0  0  0  0  0  0  0  0
   17.3239  -23.8060  -20.0740 C   0  0  0  0  0  0  0  0  0  0  0  0
   16.2919  -24.6044  -20.7446 C   0  0  0  0  0  0  0  0  0  0  0  0
   15.0866  -24.1919  -20.7411 O   0  0  0  0  0  0  0  0  0  0  0  0
   16.5296  -25.8206  -21.4089 N   0  0  0  0  0  0  0  0  0  0  0  0
   15.5275  -26.4929  -22.2010 C   0  0  0  0  0  0  0  0  0  0  0  0
   15.3890  -27.9632  -21.8617 C   0  0  0  0  0  0  0  0  0  0  0  0
   15.6169  -26.2659  -23.6431 C   0  0  0  0  0  0  0  0  0  0  0  0
   15.7758  -27.3211  -24.5316 C   0  0  0  0  0  0  0  0  0  0  0  0
   15.8620  -27.1602  -25.8855 C   0  0  0  0  0  0  0  0  0  0  0  0
   15.7918  -25.9062  -26.4322 C   0  0  0  0  0  0  0  0  0  0  0  0
   15.6357  -24.8400  -25.5933 C   0  0  0  0  0  0  0  0  0  0  0  0
   15.5484  -25.0124  -24.2101 C   0  0  0  0  0  0  0  0  0  0  0  0
   15.3917  -23.8639  -23.4543 O   0  0  0  0  0  0  0  0  0  0  0  0
   15.2789  -22.5880  -24.0037 C   0  0  0  0  0  0  0  0  0  0  0  0
   18.1677  -24.4240  -19.1760 C   0  0  0  0  0  0  0  0  0  0  0  0
   19.1673  -23.7229  -18.5070 C   0  0  0  0  0  0  0  0  0  0  0  0
   20.3008  -24.6420  -17.2767 Br  0  0  0  0  0  0  0  0  0  0  0  0
   19.3283  -22.3801  -18.7377 C   0  0  0  0  0  0  0  0  0  0  0  0
   20.2997  -21.6734  -18.0945 O   0  0  0  0  0  0  0  0  0  0  0  0
   21.6296  -21.5328  -18.5512 C   0  0  0  0  0  0  0  0  0  0  0  0
  1  2  1  0
  2  3  1  0
  3  4  1  0
  4  5  2  0
  5  6  1  0
  6  7  1  0
  7  8  2  0
  7  9  1  0
  9 10  1  0
 10 11  1  0
 10 12  1  0
 12 13  2  0
 13 14  1  0
 14 15  2  0
 15 16  1  0
 16 17  2  0
 17 18  1  0
 18 19  1  0
  6 20  2  0
 20 21  1  0
 21 22  1  0
 21 23  2  0
 23 24  1  0
 24 25  1  0
 23  4  1  0
 17 12  1  0
M  END
$$$$
