
     RDKit          3D

 18 19  0  0  0  0  0  0  0  0999 V2000
    0.7381   -5.0728  -51.8655 N   0  0  0  0  0  0  0  0  0  0  0  0
   -0.1646   -4.7628  -52.7753 O   0  0  0  0  0  0  0  0  0  0  0  0
    0.3552   -4.3107  -53.9772 C   0  0  0  0  0  0  0  0  0  0  0  0
    0.6188   -5.4197  -54.9525 C   0  0  0  0  0  0  0  0  0  0  0  0
    0.9948   -4.8798  -56.3010 C   0  0  0  0  0  0  0  0  0  0  0  0
    0.4147   -5.3790  -57.3545 C   0  0  0  0  0  0  0  0  0  0  0  0
    0.7458   -4.8891  -58.6787 C   0  0  0  0  0  3  0  0  0  0  0  0
    0.1098   -5.4325  -59.8698 C   0  0  0  0  0  0  0  0  0  0  0  0
   -0.7450   -4.6605  -60.6202 C   0  0  0  0  0  0  0  0  0  0  0  0
   -1.3672   -5.1567  -61.7654 C   0  0  0  0  0  0  0  0  0  0  0  0
   -1.1390   -6.4488  -62.1799 C   0  0  0  0  0  0  0  0  0  0  0  0
   -1.9113   -7.1013  -63.6223 Cl  0  0  0  0  0  0  0  0  0  0  0  0
   -0.2841   -7.2267  -61.4328 C   0  0  0  0  0  0  0  0  0  0  0  0
   -0.0014   -8.8670  -61.9686 Cl  0  0  0  0  0  0  0  0  0  0  0  0
    0.3305   -6.7311  -60.2983 C   0  0  0  0  0  0  0  0  0  0  0  0
    1.7475   -3.8294  -58.7167 C   0  0  0  0  0  0  0  0  0  0  0  0
    2.2839   -3.3785  -57.6431 N   0  0  0  0  0  0  0  0  0  0  0  0
    1.9987   -3.8205  -56.3142 C   0  0  0  0  0  0  0  0  0  0  0  0
  1  2  1  0
  2  3  1  0
  3  4  1  0
  4  5  1  0
  5  6  2  0
  6  7  1  0
  7  8  1  0
  8  9  2  0
  9 10  1  0
 10 11  2  0
 11 12  1  0
 11 13  1  0
 13 14  1  0
 13 15  2  0
  7 16  1  0
 16 17  2  0
 17 18  1  0
 18  5  1  0
 15  8  1  0
M  CHG  1   7  -1
M  END
$$$$
