
     RDKit          3D

 17 17  0  0  0  0  0  0  0  0999 V2000
    1.8765   -3.3597  -58.4717 N   0  0  0  0  0  0  0  0  0  0  0  0
    0.9473   -4.3978  -58.7560 C   0  0  0  0  0  0  0  0  0  0  0  0
    0.4786   -5.1586  -57.8016 C   0  0  0  0  0  0  0  0  0  0  0  0
    0.8201   -5.0447  -56.4319 N   0  0  0  0  0  0  0  0  0  0  0  0
    0.4427   -5.9280  -55.3736 C   0  0  0  0  0  0  0  0  0  0  0  0
    1.4749   -5.8115  -54.2402 C   0  0  0  0  0  0  0  0  0  0  0  0
    1.6666   -4.4920  -53.8482 O   0  0  0  0  0  0  0  0  0  0  0  0
   -0.4837   -6.2229  -58.2251 C   0  0  0  0  0  0  0  0  0  0  0  0
   -1.0840   -5.9744  -59.5480 C   0  0  0  0  0  0  0  0  0  0  0  0
   -2.4019   -6.6249  -59.8867 C   0  0  0  0  0  0  0  0  0  0  0  0
   -2.5406   -6.6476  -61.3320 N   0  0  0  0  0  0  0  0  0  0  0  0
   -2.5828   -8.0086  -61.7778 C   0  0  0  0  0  0  0  0  0  0  0  0
   -1.2500   -8.6169  -61.8880 C   0  0  0  0  0  0  0  0  0  0  0  0
   -0.9449   -9.3631  -62.9318 C   0  0  0  0  0  0  0  0  0  0  0  0
    0.6713   -9.2821  -63.6408 Cl  0  0  0  0  0  0  0  0  0  0  0  0
   -0.5346   -5.2235  -60.4111 C   0  0  0  0  0  0  0  0  0  0  0  0
    0.5450   -4.5789  -60.1414 C   0  0  0  0  0  0  0  0  0  0  0  0
  1  2  1  0
  2  3  2  0
  3  4  1  0
  4  5  1  0
  5  6  1  0
  6  7  1  0
  3  8  1  0
  8  9  1  0
  9 10  1  0
 10 11  1  0
 11 12  1  0
 12 13  1  0
 13 14  2  3
 14 15  1  0
  9 16  2  0
 16 17  2  0
 17  2  1  0
M  END
$$$$
