
     RDKit          3D

 22 24  0  0  0  0  0  0  0  0999 V2000
    1.1163   25.2789   -7.9916 C   0  0  0  0  0  3  0  0  0  0  0  0
    1.0580   26.5050   -7.7245 C   0  0  0  0  0  0  0  0  0  0  0  0
    0.9945   27.8610   -7.4141 N   0  0  0  0  0  0  0  0  0  0  0  0
    2.2547   28.4774   -7.1046 C   0  0  0  0  0  0  0  0  0  0  0  0
    3.0271   27.8590   -6.3134 N   0  0  0  0  0  0  0  0  0  0  0  0
    4.3487   28.1123   -5.7440 C   0  0  0  0  0  0  0  0  0  0  0  0
    4.4273   29.4926   -5.3288 N   0  0  0  0  0  0  0  0  0  0  0  0
    4.6687   29.7381   -3.9617 C   0  0  0  0  0  0  0  0  0  0  0  0
    5.7608   29.1040   -3.3575 C   0  0  0  0  0  0  0  0  0  0  0  0
    6.0596   29.3177   -2.0424 C   0  0  0  0  0  0  0  0  0  0  0  0
    5.2983   30.1725   -1.2382 C   0  0  0  0  0  0  0  0  0  0  0  0
    5.6566   30.4893    0.4353 Cl  0  0  0  0  0  0  0  0  0  0  0  0
    4.2194   30.8059   -1.8154 C   0  0  0  0  0  0  0  0  0  0  0  0
    3.2180   31.9248   -0.8862 Cl  0  0  0  0  0  0  0  0  0  0  0  0
    3.9382   30.5697   -3.1507 C   0  0  0  0  0  0  0  0  0  0  0  0
    4.2651   30.6428   -6.1296 N   0  0  0  0  0  0  0  0  0  0  0  0
    3.4139   30.7285   -7.2893 C   0  0  0  0  0  0  0  0  0  0  0  0
    3.5693   31.9061   -7.9619 C   0  0  0  0  0  0  0  0  0  0  0  0
    2.7963   32.1139   -9.1241 C   0  0  0  0  0  0  0  0  0  0  0  0
    1.9293   31.1485   -9.5418 C   0  0  0  0  0  0  0  0  0  0  0  0
    1.7704   29.9357   -8.8494 C   0  0  0  0  0  0  0  0  0  0  0  0
    2.5213   29.7462   -7.7255 C   0  0  0  0  0  0  0  0  0  0  0  0
  1  2  3  0
  2  3  1  0
  3  4  1  0
  4  5  2  0
  5  6  1  0
  6  7  1  0
  7  8  1  0
  8  9  2  0
  9 10  1  0
 10 11  2  0
 11 12  1  0
 11 13  1  0
 13 14  1  0
 13 15  2  0
  7 16  1  0
 16 17  1  0
 17 18  2  0
 18 19  1  0
 19 20  2  0
 20 21  1  0
 21 22  2  0
 22  4  1  0
 15  8  1  0
 22 17  1  0
M  CHG  1   1  -1
M  END
$$$$
