
     RDKit          3D

 21 22  0  0  0  0  0  0  0  0999 V2000
   30.9293   50.1574   30.6572 O   0  0  0  0  0  0  0  0  0  0  0  0
   30.0955   50.8239   30.0076 C   0  0  0  0  0  0  0  0  0  0  0  0
   29.2574   51.7524   30.6358 N   0  0  0  0  0  0  0  0  0  0  0  0
   29.2696   52.0961   32.0104 C   0  0  0  0  0  0  0  0  0  0  0  0
   28.4924   53.1664   32.4485 C   0  0  0  0  0  0  0  0  0  0  0  0
   28.4305   53.5839   33.7556 C   0  0  0  0  0  0  0  0  0  0  0  0
   29.1695   52.9244   34.7112 C   0  0  0  0  0  0  0  0  0  0  0  0
   29.1015   53.3726   36.1143 C   0  0  0  0  0  0  0  0  0  0  0  0
   27.9682   52.8842   36.7673 O   0  0  0  0  0  0  0  0  0  0  0  0
   29.9522   51.8566   34.3081 C   0  0  0  0  0  0  0  0  0  0  0  0
   30.6735   51.2179   35.2575 F   0  0  0  0  0  0  0  0  0  0  0  0
   29.9906   51.4587   32.9656 C   0  0  0  0  0  0  0  0  0  0  0  0
   30.0164   50.6120   28.5827 N   0  0  0  0  0  0  0  0  0  0  0  0
   30.8419   49.7191   27.8792 C   0  0  0  0  0  0  0  0  0  0  0  0
   31.8602   49.0806   28.5316 C   0  0  0  0  0  0  0  0  0  0  0  0
   32.6998   48.1951   27.8903 C   0  0  0  0  0  0  0  0  0  0  0  0
   34.0038   47.3934   28.7781 Cl  0  0  0  0  0  0  0  0  0  0  0  0
   32.4984   47.9509   26.5444 C   0  0  0  0  0  0  0  0  0  0  0  0
   31.4685   48.5940   25.8761 C   0  0  0  0  0  0  0  0  0  0  0  0
   31.2719   48.2365   24.1727 Cl  0  0  0  0  0  0  0  0  0  0  0  0
   30.6352   49.4838   26.5485 C   0  0  0  0  0  0  0  0  0  0  0  0
  1  2  2  0
  2  3  1  0
  3  4  1  0
  4  5  2  0
  5  6  1  0
  6  7  2  0
  7  8  1  0
  8  9  1  0
  7 10  1  0
 10 11  1  0
 10 12  2  0
  2 13  1  0
 13 14  1  0
 14 15  2  0
 15 16  1  0
 16 17  1  0
 16 18  2  0
 18 19  1  0
 19 20  1  0
 19 21  2  0
 12  4  1  0
 21 14  1  0
M  END
$$$$
