
     RDKit          3D

 19 20  0  0  0  0  0  0  0  0999 V2000
  152.3093  160.4152  160.7560 C   0  0  0  0  0  0  0  0  0  0  0  0
  152.1631  159.2272  160.5946 C   0  0  0  0  0  0  0  0  0  0  0  0
  151.9666  157.7682  160.3771 C   0  0  0  0  0  0  0  0  0  0  0  0
  150.6197  157.4751  160.6462 N   0  0  0  0  0  0  0  0  0  0  0  0
  150.3444  156.3335  161.4283 C   0  0  0  0  0  0  0  0  0  0  0  0
  151.3899  155.3110  161.1036 C   0  0  0  0  0  0  0  0  0  0  0  0
  152.2174  154.5216  160.8355 C   0  0  0  0  0  0  0  0  0  0  0  0
  149.6625  157.8823  159.6876 C   0  0  0  0  0  0  0  0  0  0  0  0
  149.3132  156.8805  158.6658 C   0  0  0  0  0  0  0  0  0  0  0  0
  148.2999  156.0042  158.9106 C   0  0  0  0  0  0  0  0  0  0  0  0
  147.9723  155.0657  157.9624 C   0  0  0  0  0  0  0  0  0  0  0  0
  148.6173  154.9569  156.7609 C   0  0  0  0  0  0  0  0  0  0  0  0
  149.6663  155.8459  156.4785 C   0  0  0  0  0  0  0  0  0  0  0  0
  150.3129  155.8012  155.3736 O   0  0  0  0  0  0  0  0  0  0  0  0
  151.0579  155.7593  154.3310 C   0  0  0  0  0  0  0  0  0  0  0  0
  149.9763  156.7967  157.4751 C   0  0  0  0  0  0  0  0  0  0  0  0
  148.0958  153.9334  155.9885 O   0  0  0  0  0  0  0  0  0  0  0  0
  147.1217  153.2888  156.7709 C   0  0  0  0  0  0  0  0  0  0  0  0
  146.9913  154.0511  157.9409 O   0  0  0  0  0  0  0  0  0  0  0  0
  1  2  3  0
  2  3  1  0
  3  4  1  0
  4  5  1  0
  5  6  1  0
  6  7  3  0
  4  8  1  0
  8  9  1  0
  9 10  2  0
 10 11  1  0
 11 12  2  0
 12 13  1  0
 13 14  1  0
 14 15  1  0
 13 16  2  0
 12 17  1  0
 17 18  1  0
 18 19  1  0
 16  9  1  0
 19 11  1  0
M  END
$$$$
