
     RDKit          3D

 27 28  0  0  0  0  0  0  0  0999 V2000
   18.2741   49.9190   19.1193 C   0  0  0  0  0  0  0  0  0  0  0  0
   18.4166   50.0849   20.6318 C   0  0  0  0  0  0  0  0  0  0  0  0
   17.6248   51.2528   21.1343 C   0  0  0  0  0  0  0  0  0  0  0  0
   16.1937   51.2465   20.7654 C   0  0  0  0  0  0  0  0  0  0  0  0
   15.0565   51.1959   21.3872 C   0  0  0  0  0  0  0  0  0  0  0  0
   14.6037   51.1147   22.7569 C   0  0  0  0  0  0  0  0  0  0  0  0
   14.0220   50.1842   23.5286 C   0  0  0  0  0  0  0  0  0  0  0  0
   13.5864   48.9000   23.3980 N   0  0  0  0  0  0  0  0  0  0  0  0
   13.9824   47.5135   23.5864 C   0  0  0  0  0  0  0  0  0  0  0  0
   13.8905   46.7604   22.3163 C   0  0  0  0  0  0  0  0  0  0  0  0
   14.7619   46.7669   21.3244 C   0  0  0  0  0  0  0  0  0  0  0  0
   16.0268   47.4190   21.0640 C   0  0  0  0  0  0  0  0  0  0  0  0
   16.8822   48.1774   21.7258 C   0  0  0  0  0  0  0  0  0  0  0  0
   18.1669   48.7537   21.2582 C   0  0  0  0  0  0  0  0  0  0  0  0
   19.2985   48.0629   21.3431 N   0  0  0  0  0  0  0  0  0  0  0  0
   19.4798   46.7484   21.8765 C   0  0  0  0  0  0  0  0  0  0  0  0
   18.2309   46.0432   22.0846 N   0  0  0  0  0  0  0  0  0  0  0  0
   18.0465   45.5639   23.4360 C   0  0  0  0  0  0  0  0  0  0  0  0
   18.9176   44.3397   23.5848 C   0  0  0  0  0  0  0  0  0  0  0  0
   20.2954   44.5334   23.2643 N   0  0  0  0  0  0  0  0  0  0  0  0
   21.4023   44.0796   24.5171 Cl  0  0  0  0  0  0  0  0  0  0  0  0
   20.5759   45.9127   22.8924 C   0  0  0  0  0  0  0  0  0  0  0  0
   21.6278   45.9864   21.8103 C   0  0  0  0  0  0  0  0  0  0  0  0
   20.8536   46.1869   20.2271 Cl  0  0  0  0  0  0  0  0  0  0  0  0
   16.6129   45.3508   23.8184 C   0  0  0  0  0  0  0  0  0  0  0  0
   16.0504   46.4569   24.6162 C   0  0  0  0  0  0  0  0  0  0  0  0
   15.0675   47.2480   24.5067 C   0  0  0  0  0  0  0  0  0  0  0  0
  1  2  1  0
  2  3  1  0
  3  4  1  0
  4  5  2  0
  5  6  1  0
  6  7  2  0
  7  8  1  0
  8  9  1  0
  9 10  1  0
 10 11  2  0
 11 12  1  0
 12 13  2  0
 13 14  1  0
 14 15  2  0
 15 16  1  0
 16 17  1  0
 17 18  1  0
 18 19  1  0
 19 20  1  0
 20 21  1  0
 20 22  1  0
 22 23  1  0
 23 24  1  0
 18 25  1  0
 25 26  1  0
 26 27  2  0
 14  2  1  0
 27  9  1  0
M  END
$$$$
