
     RDKit          3D

 19 20  0  0  0  0  0  0  0  0999 V2000
   49.1928  140.4992  167.2192 C   0  0  0  0  0  0  0  0  0  0  0  0
   49.8591  141.4118  166.2476 C   0  0  0  0  0  0  0  0  0  0  0  0
   50.8014  142.2629  166.6132 C   0  0  0  0  0  0  0  0  0  0  0  0
   51.4949  143.1827  165.7212 C   0  0  0  0  0  0  0  0  0  0  0  0
   51.0714  143.1222  164.2768 C   0  0  0  0  0  0  0  0  0  0  0  0
   52.2738  142.6496  163.4966 C   0  0  0  0  0  0  0  0  0  0  0  0
   53.5257  143.3019  163.9348 C   0  0  0  0  0  0  0  0  0  0  0  0
   53.6436  144.5803  164.2674 C   0  0  0  0  0  0  0  0  0  0  0  0
   55.2768  145.0371  164.7448 Cl  0  0  0  0  0  0  0  0  0  0  0  0
   52.6896  145.6768  164.3141 C   0  0  0  0  0  0  0  0  0  0  0  0
   53.3950  147.2658  164.6470 Cl  0  0  0  0  0  0  0  0  0  0  0  0
   51.3924  145.6033  164.1382 C   0  0  0  0  0  0  0  0  0  0  0  0
   50.5485  144.4538  163.8548 C   0  0  0  0  0  0  0  0  0  0  0  0
   50.0437  142.1576  164.0225 N   0  0  0  0  0  0  0  0  0  0  0  0
   49.4794  141.3847  164.8477 C   0  0  0  0  0  0  0  0  0  0  0  0
   48.4535  140.4527  164.4714 N   0  0  0  0  0  0  0  0  0  0  0  0
   48.8551  139.0820  164.2845 C   0  0  0  0  0  0  0  0  0  0  0  0
   49.3314  138.5918  165.5180 O   0  0  0  0  0  0  0  0  0  0  0  0
   48.6808  137.4435  165.8122 N   0  0  0  0  0  0  0  0  0  0  0  0
  1  2  1  0
  2  3  2  0
  3  4  1  0
  4  5  1  0
  5  6  1  0
  6  7  1  0
  7  8  2  0
  8  9  1  0
  8 10  1  0
 10 11  1  0
 10 12  2  0
 12 13  1  0
  5 14  1  0
 14 15  2  0
 15 16  1  0
 16 17  1  0
 17 18  1  0
 18 19  1  0
 15  2  1  0
 13  5  1  0
M  END
$$$$
