
     RDKit          3D

 22 23  0  0  0  0  0  0  0  0999 V2000
  153.9521  148.4975  141.7843 C   0  0  0  0  0  0  0  0  0  0  0  0
  153.7991  147.9042  143.1695 C   0  0  0  0  0  0  0  0  0  0  0  0
  152.3876  147.7771  143.5561 N   0  0  0  0  0  0  0  0  0  0  0  0
  151.9176  146.5530  144.1121 C   0  0  0  0  0  0  0  0  0  0  0  0
  151.9852  146.5294  145.6324 C   0  0  0  0  0  0  0  0  0  0  0  0
  151.5450  148.8718  143.2789 C   0  0  0  0  0  0  0  0  0  0  0  0
  150.4496  148.6597  142.4185 C   0  0  0  0  0  0  0  0  0  0  0  0
  149.5601  149.6504  142.0815 C   0  0  0  0  0  0  0  0  0  0  0  0
  149.7271  150.9086  142.5938 C   0  0  0  0  0  0  0  0  0  0  0  0
  148.8358  151.9877  142.2818 N   0  0  0  0  0  0  0  0  0  0  0  0
  150.7784  151.1519  143.4342 C   0  0  0  0  0  0  0  0  0  0  0  0
  151.6833  150.1326  143.7750 C   0  0  0  0  0  0  0  0  0  0  0  0
  152.7292  150.4846  144.6489 N   0  0  0  0  0  0  0  0  0  0  0  0
  152.9940  151.8303  144.9504 C   0  0  0  0  0  0  0  0  0  0  0  0
  152.2107  152.6846  144.4617 O   0  0  0  0  0  0  0  0  0  0  0  0
  154.1299  152.2288  145.7974 C   0  0  0  0  0  0  0  0  0  0  0  0
  154.0819  153.3695  146.5275 C   0  0  0  0  0  0  0  0  0  0  0  0
  155.1562  153.7424  147.3114 C   0  0  0  0  0  0  0  0  0  0  0  0
  156.2693  152.9416  147.3394 C   0  0  0  0  0  0  0  0  0  0  0  0
  156.3291  151.7925  146.6098 C   0  0  0  0  0  0  0  0  0  0  0  0
  157.7783  150.7765  146.6597 Cl  0  0  0  0  0  0  0  0  0  0  0  0
  155.2391  151.4246  145.8212 C   0  0  0  0  0  0  0  0  0  0  0  0
  1  2  1  0
  2  3  1  0
  3  4  1  0
  4  5  1  0
  3  6  1  0
  6  7  2  0
  7  8  1  0
  8  9  2  0
  9 10  1  0
  9 11  1  0
 11 12  2  0
 12 13  1  0
 13 14  1  0
 14 15  2  0
 14 16  1  0
 16 17  2  0
 17 18  1  0
 18 19  2  0
 19 20  1  0
 20 21  1  0
 20 22  2  0
 12  6  1  0
 22 16  1  0
M  END
$$$$
