
     RDKit          3D

 24 25  0  0  0  0  0  0  0  0999 V2000
   -1.4122   30.6468   10.4642 C   0  0  0  0  0  0  0  0  0  0  0  0
   -2.8356   30.6973    9.8962 C   0  0  0  0  0  0  0  0  0  0  0  0
   -3.5568   29.6799   10.5191 O   0  0  0  0  0  0  0  0  0  0  0  0
   -3.3198   28.3241   10.3713 C   0  0  0  0  0  0  0  0  0  0  0  0
   -2.1171   27.9536   10.4754 O   0  0  0  0  0  0  0  0  0  0  0  0
   -4.4057   27.3861   10.1103 C   0  0  0  0  0  0  0  0  0  0  0  0
   -5.5703   27.8682    9.7260 C   0  0  0  0  0  0  0  0  0  0  0  0
   -6.6525   26.9849    9.4623 N   0  0  0  0  0  0  0  0  0  0  0  0
   -7.9582   27.5060    9.0328 C   0  0  0  0  0  0  0  0  0  0  0  0
   -6.4281   25.5966    9.6273 C   0  0  0  0  0  0  0  0  0  0  0  0
   -5.2825   25.0782   10.0084 C   0  0  0  0  0  0  0  0  0  0  0  0
   -5.1271   23.6416   10.1560 C   0  0  0  0  0  0  0  0  0  0  0  0
   -4.1250   23.1529   10.7631 O   0  0  0  0  0  0  0  0  0  0  0  0
   -6.0333   22.7288    9.6601 O   0  0  0  0  0  0  0  0  0  0  0  0
   -5.6640   21.4559    9.1680 C   0  0  0  0  0  0  0  0  0  0  0  0
   -5.8611   20.3688   10.1747 C   0  0  0  0  0  0  0  0  0  0  0  0
   -4.1364   25.9550   10.2917 C   0  0  0  0  0  0  0  0  0  0  0  0
   -3.7344   25.7548   11.7102 C   0  0  0  0  0  0  0  0  0  0  0  0
   -3.9354   26.7946   12.6064 C   0  0  0  0  0  0  0  0  0  0  0  0
   -3.5598   26.6023   13.9224 C   0  0  0  0  0  0  0  0  0  0  0  0
   -3.0052   25.3932   14.2856 C   0  0  0  0  0  0  0  0  0  0  0  0
   -2.8066   24.3624   13.3945 C   0  0  0  0  0  0  0  0  0  0  0  0
   -2.1067   22.8330   13.8464 Cl  0  0  0  0  0  0  0  0  0  0  0  0
   -3.1849   24.5521   12.0621 C   0  0  0  0  0  0  0  0  0  0  0  0
  1  2  1  0
  2  3  1  0
  3  4  1  0
  4  5  2  0
  4  6  1  0
  6  7  2  0
  7  8  1  0
  8  9  1  0
  8 10  1  0
 10 11  2  0
 11 12  1  0
 12 13  2  0
 12 14  1  0
 14 15  1  0
 15 16  1  0
 11 17  1  0
 17 18  1  0
 18 19  2  0
 19 20  1  0
 20 21  2  0
 21 22  1  0
 22 23  1  0
 22 24  2  0
 17  6  1  0
 24 18  1  0
M  END
$$$$
