
     RDKit          3D

 24 25  0  0  0  0  0  0  0  0999 V2000
   26.9411   70.1324   12.4486 C   0  0  0  0  0  0  0  0  0  0  0  0
   26.6954   68.8237   13.2089 C   0  0  0  0  0  0  0  0  0  0  0  0
   25.6687   69.0703   14.1190 O   0  0  0  0  0  0  0  0  0  0  0  0
   24.3743   68.5906   14.0153 C   0  0  0  0  0  0  0  0  0  0  0  0
   24.2516   67.3987   13.6169 O   0  0  0  0  0  0  0  0  0  0  0  0
   23.2252   69.4240   14.3501 C   0  0  0  0  0  0  0  0  0  0  0  0
   23.4290   70.7033   14.5915 C   0  0  0  0  0  0  0  0  0  0  0  0
   22.3335   71.5472   14.9211 N   0  0  0  0  0  0  0  0  0  0  0  0
   22.5433   72.9765   15.1933 C   0  0  0  0  0  0  0  0  0  0  0  0
   21.0440   70.9651   14.9770 C   0  0  0  0  0  0  0  0  0  0  0  0
   20.8008   69.6952   14.7430 C   0  0  0  0  0  0  0  0  0  0  0  0
   19.4491   69.1689   14.8193 C   0  0  0  0  0  0  0  0  0  0  0  0
   19.1914   67.9788   14.4607 O   0  0  0  0  0  0  0  0  0  0  0  0
   18.3765   69.9052   15.2751 O   0  0  0  0  0  0  0  0  0  0  0  0
   17.4209   70.4982   14.4183 C   0  0  0  0  0  0  0  0  0  0  0  0
   16.6531   69.4905   13.6251 C   0  0  0  0  0  0  0  0  0  0  0  0
   21.9044   68.7863   14.3986 C   0  0  0  0  0  0  0  0  0  0  0  0
   21.9659   67.7146   15.4288 C   0  0  0  0  0  0  0  0  0  0  0  0
   22.5682   66.5106   15.0938 C   0  0  0  0  0  0  0  0  0  0  0  0
   22.6220   65.5192   16.0552 C   0  0  0  0  0  0  0  0  0  0  0  0
   22.0785   65.7679   17.2978 C   0  0  0  0  0  0  0  0  0  0  0  0
   21.4812   66.9638   17.6283 C   0  0  0  0  0  0  0  0  0  0  0  0
   20.7928   67.2846   19.1956 Cl  0  0  0  0  0  0  0  0  0  0  0  0
   21.4243   67.9697   16.6592 C   0  0  0  0  0  0  0  0  0  0  0  0
  1  2  1  0
  2  3  1  0
  3  4  1  0
  4  5  2  0
  4  6  1  0
  6  7  2  0
  7  8  1  0
  8  9  1  0
  8 10  1  0
 10 11  2  0
 11 12  1  0
 12 13  2  0
 12 14  1  0
 14 15  1  0
 15 16  1  0
 11 17  1  0
 17 18  1  0
 18 19  2  0
 19 20  1  0
 20 21  2  0
 21 22  1  0
 22 23  1  0
 22 24  2  0
 17  6  1  0
 24 18  1  0
M  END
$$$$
