
     RDKit          3D

 25 28  0  0  0  0  0  0  0  0999 V2000
    2.7638    9.5578    3.7354 C   0  0  0  0  0  0  0  0  0  0  0  0
    3.8200    9.1636    2.7296 C   0  0  2  0  0  0  0  0  0  0  0  0
    3.7507    7.7666    2.5483 O   0  0  0  0  0  0  0  0  0  0  0  0
    5.1827    9.4742    3.3601 C   0  0  0  0  0  0  0  0  0  0  0  0
    5.9176    8.2606    3.5949 N   0  0  0  0  0  0  0  0  0  0  0  0
    7.2971    8.4681    3.6564 C   0  0  0  0  0  0  0  0  0  0  0  0
    7.6204    9.5568    4.7330 C   0  0  0  0  0  0  0  0  0  0  0  0
    9.0875    9.4222    4.9951 C   0  0  0  0  0  0  0  0  0  0  0  0
    9.5231    8.2949    4.0941 C   0  0  1  0  0  0  0  0  0  0  0  0
   10.7496    7.6145    4.5290 C   0  0  2  0  0  0  0  0  0  0  0  0
   11.8865    8.5662    4.0891 C   0  0  0  0  0  0  0  0  0  0  0  0
   13.1564    7.9731    4.5371 C   0  0  0  0  0  0  0  0  0  0  0  0
   13.2543    6.6766    4.5624 C   0  0  0  0  0  0  0  0  0  0  0  0
   14.5558    6.0888    5.0186 C   0  0  0  0  0  0  0  0  0  0  0  0
   15.1490    5.3980    3.8179 C   0  0  1  0  0  0  0  0  0  0  0  0
   15.6155    4.1328    4.1399 O   0  0  0  0  0  0  0  0  0  0  0  0
   14.1673    5.3410    2.6801 C   0  0  0  0  0  0  0  0  0  0  0  0
   12.8140    4.8232    3.1034 C   0  0  0  0  0  0  0  0  0  0  0  0
   12.1909    5.6904    4.1902 C   0  0  1  0  0  0  0  0  0  0  0  0
   11.9957    4.8098    5.3966 C   0  0  0  0  0  0  0  0  0  0  0  0
   10.9662    6.3628    3.7093 C   0  0  1  0  0  0  0  0  0  0  0  0
    9.7288    5.5286    3.6262 C   0  0  0  0  0  0  0  0  0  0  0  0
    8.5496    6.3244    3.1150 C   0  0  0  0  0  0  0  0  0  0  0  0
    8.2485    7.4207    4.0929 C   0  0  2  0  0  0  0  0  0  0  0  0
    8.0774    6.9067    5.4840 C   0  0  0  0  0  0  0  0  0  0  0  0
  2  1  1  1
  2  3  1  0
  2  4  1  0
  4  5  1  0
  5  6  1  0
  6  7  1  0
  7  8  1  0
  9  8  1  1
  9 10  1  0
 10 11  1  6
 11 12  1  0
 12 13  2  0
 13 14  1  0
 14 15  1  0
 15 16  1  1
 15 17  1  0
 17 18  1  0
 18 19  1  0
 19 20  1  1
 19 21  1  0
 21 22  1  1
 22 23  1  0
 23 24  1  0
 24 25  1  1
 24  6  1  0
 24  9  1  0
 21 10  1  0
 19 13  1  0
M  END
$$$$
