
     RDKit          3D

 13 13  0  0  0  0  0  0  0  0999 V2000
   17.4498   -5.4199   26.6754 C   0  0  0  0  0  0  0  0  0  0  0  0
   17.6859   -5.2537   25.2991 O   0  0  0  0  0  0  0  0  0  0  0  0
   18.5959   -6.2084   24.8237 C   0  0  0  0  0  0  0  0  0  0  0  0
   17.9014   -7.2623   24.0240 C   0  0  2  0  0  0  0  0  0  0  0  0
   18.0034   -8.4700   24.6736 O   0  0  0  0  0  0  0  0  0  0  0  0
   18.4389   -7.3926   22.6181 C   0  0  1  0  0  0  0  0  0  0  0  0
   17.5944   -8.2175   21.8862 O   0  0  0  0  0  0  0  0  0  0  0  0
   18.5065   -6.0660   21.9249 C   0  0  0  0  0  0  0  0  0  0  0  0
   19.1748   -6.2771   20.7019 O   0  0  0  0  0  0  0  0  0  0  0  0
   19.1755   -4.9949   22.7207 C   0  0  2  0  0  0  0  0  0  0  0  0
   20.3062   -4.5200   22.0337 O   0  0  0  0  0  0  0  0  0  0  0  0
   19.6613   -5.4693   24.0684 C   0  0  1  0  0  0  0  0  0  0  0  0
   20.0107   -4.3275   24.8065 O   0  0  0  0  0  0  0  0  0  0  0  0
  1  2  1  0
  2  3  1  0
  3  4  1  0
  4  5  1  1
  4  6  1  0
  6  7  1  6
  6  8  1  0
  8  9  1  0
  8 10  1  0
 10 11  1  6
 10 12  1  0
 12 13  1  1
 12  3  1  0
M  END
$$$$
