
     RDKit          3D

 13 13  0  0  0  0  0  0  0  0999 V2000
   44.2260   25.2837   28.0229 C   0  0  0  0  0  0  0  0  0  0  0  0
   43.1442   25.5497   27.1647 O   0  0  0  0  0  0  0  0  0  0  0  0
   42.4858   24.3668   26.8003 C   0  0  0  0  0  0  0  0  0  0  0  0
   41.0612   24.3833   27.2509 C   0  0  2  0  0  0  0  0  0  0  0  0
   40.8706   23.4053   28.1986 O   0  0  0  0  0  0  0  0  0  0  0  0
   40.0776   24.1956   26.1197 C   0  0  1  0  0  0  0  0  0  0  0  0
   38.7957   24.4547   26.5879 O   0  0  0  0  0  0  0  0  0  0  0  0
   40.3541   25.1320   24.9831 C   0  0  0  0  0  0  0  0  0  0  0  0
   39.4988   24.7574   23.9272 O   0  0  0  0  0  0  0  0  0  0  0  0
   41.7784   25.1463   24.5368 C   0  0  2  0  0  0  0  0  0  0  0  0
   41.8650   24.7501   23.1909 O   0  0  0  0  0  0  0  0  0  0  0  0
   42.6574   24.2011   25.3188 C   0  0  1  0  0  0  0  0  0  0  0  0
   43.9875   24.5102   24.9936 O   0  0  0  0  0  0  0  0  0  0  0  0
  1  2  1  0
  2  3  1  0
  3  4  1  0
  4  5  1  1
  4  6  1  0
  6  7  1  1
  6  8  1  0
  8  9  1  0
  8 10  1  0
 10 11  1  6
 10 12  1  0
 12 13  1  1
 12  3  1  0
M  END
$$$$
