
     RDKit          3D

 22 24  0  0  0  0  0  0  0  0999 V2000
  151.3326  151.6273  146.9499 O   0  0  0  0  0  0  0  0  0  0  0  0
  152.2472  151.0740  146.2408 C   0  0  0  0  0  0  0  0  0  0  0  0
  151.9598  149.8670  145.5756 N   0  0  0  0  0  0  0  0  0  0  0  0
  150.6540  149.2786  145.7832 C   0  0  0  0  0  0  0  0  0  0  0  0
  150.1901  148.1414  145.3292 N   0  0  0  0  0  0  0  0  0  0  0  0
  148.9693  147.7612  145.6198 C   0  0  0  0  0  0  0  0  0  0  0  0
  148.3867  146.4709  145.1280 C   0  0  0  0  0  0  0  0  0  0  0  0
  147.0653  146.1639  145.3306 C   0  0  0  0  0  0  0  0  0  0  0  0
  146.5176  144.9619  144.8737 C   0  0  0  0  0  0  0  0  0  0  0  0
  147.3234  144.0860  144.2153 C   0  0  0  0  0  0  0  0  0  0  0  0
  148.6473  144.4099  144.0205 C   0  0  0  0  0  0  0  0  0  0  0  0
  149.1509  145.5919  144.4792 N   0  0  0  0  0  0  0  0  0  0  0  0
  148.2359  148.6204  146.4129 C   0  0  0  0  0  0  0  0  0  0  0  0
  149.3351  149.8916  146.6794 S   0  0  0  0  0  0  0  0  0  0  0  0
  153.5250  151.7505  146.1825 C   0  0  0  0  0  0  0  0  0  0  0  0
  153.5903  153.1113  146.0199 C   0  0  0  0  0  0  0  0  0  0  0  0
  154.7969  153.7773  145.9615 C   0  0  0  0  0  0  0  0  0  0  0  0
  155.9604  153.0452  146.0706 C   0  0  0  0  0  0  0  0  0  0  0  0
  157.1699  153.7348  146.0094 O   0  0  0  0  0  0  0  0  0  0  0  0
  155.9226  151.6940  146.2325 C   0  0  0  0  0  0  0  0  0  0  0  0
  157.4011  150.7918  146.3678 Cl  0  0  0  0  0  0  0  0  0  0  0  0
  154.6936  151.0427  146.2887 C   0  0  0  0  0  0  0  0  0  0  0  0
  1  2  2  0
  2  3  1  0
  3  4  1  0
  4  5  2  0
  5  6  1  0
  6  7  1  0
  7  8  2  0
  8  9  1  0
  9 10  2  0
 10 11  1  0
 11 12  2  0
  6 13  2  0
 13 14  1  0
  2 15  1  0
 15 16  2  0
 16 17  1  0
 17 18  2  0
 18 19  1  0
 18 20  1  0
 20 21  1  0
 20 22  2  0
 14  4  1  0
 22 15  1  0
 12  7  1  0
M  END
$$$$
