
     RDKit          3D

 21 23  0  0  0  0  0  0  0  0999 V2000
  126.0625  142.8929  136.3941 C   0  0  0  0  0  0  0  0  0  0  0  0
  125.7543  143.5281  137.6007 O   0  0  0  0  0  0  0  0  0  0  0  0
  124.7002  144.4100  137.7258 C   0  0  0  0  0  0  0  0  0  0  0  0
  124.4347  145.1413  138.8750 C   0  0  0  0  0  0  0  0  0  0  0  0
  123.3735  146.0180  138.9763 C   0  0  0  0  0  0  0  0  0  0  0  0
  122.5204  146.1988  137.9076 C   0  0  0  0  0  0  0  0  0  0  0  0
  121.3703  147.0973  137.9044 C   0  0  0  0  0  0  0  0  0  0  0  0
  120.6750  147.4502  136.7681 C   0  0  0  0  0  0  0  0  0  0  0  0
  119.5871  148.2988  136.7567 C   0  0  0  0  0  0  0  0  0  0  0  0
  118.9719  148.6030  135.7028 O   0  0  0  0  0  0  0  0  0  0  0  0
  119.1693  148.8273  137.9600 C   0  0  0  0  0  0  0  0  0  0  0  0
  118.1001  149.6838  138.0835 C   0  0  0  0  0  0  0  0  0  0  0  0
  117.3901  150.0462  136.9347 O   0  0  0  0  0  0  0  0  0  0  0  0
  117.7008  150.2000  139.3002 C   0  0  0  0  0  0  0  0  0  0  0  0
  118.4359  149.8134  140.4210 C   0  0  0  0  0  0  0  0  0  0  0  0
  118.0806  150.3029  141.6838 O   0  0  0  0  0  0  0  0  0  0  0  0
  119.5164  148.9491  140.3037 C   0  0  0  0  0  0  0  0  0  0  0  0
  119.9020  148.4392  139.0612 C   0  0  0  0  0  0  0  0  0  0  0  0
  120.9139  147.6393  139.0084 O   0  0  0  0  0  0  0  0  0  0  0  0
  122.7866  145.4776  136.7818 C   0  0  0  0  0  0  0  0  0  0  0  0
  123.8387  144.5934  136.6483 C   0  0  0  0  0  0  0  0  0  0  0  0
  1  2  1  0
  2  3  1  0
  3  4  2  0
  4  5  1  0
  5  6  2  0
  6  7  1  0
  7  8  2  0
  8  9  1  0
  9 10  2  0
  9 11  1  0
 11 12  2  0
 12 13  1  0
 12 14  1  0
 14 15  2  0
 15 16  1  0
 15 17  1  0
 17 18  2  0
 18 19  1  0
  6 20  1  0
 20 21  2  0
 21  3  1  0
 19  7  1  0
 18 11  1  0
M  END
$$$$
