
     RDKit          3D

 17 18  0  0  0  0  0  0  0  0999 V2000
  129.2912  137.4552  138.2001 C   0  0  0  0  0  0  0  0  0  0  0  0
  128.4264  136.3705  138.6228 N   0  0  0  0  0  0  0  0  0  0  0  0
  128.4477  136.2780  140.0562 C   0  0  0  0  0  0  0  0  0  0  0  0
  128.1976  137.6127  140.7221 C   0  0  0  0  0  0  0  0  0  0  0  0
  128.1201  137.3797  142.2359 C   0  0  0  0  0  0  0  0  0  0  0  0
  128.9603  138.3971  142.9682 C   0  0  0  0  0  0  0  0  0  0  0  0
  128.1243  139.0590  143.9594 N   0  0  0  0  0  0  0  0  0  0  0  0
  128.0601  140.4668  144.0802 C   0  0  0  0  0  0  0  0  0  0  0  0
  128.4578  141.2917  143.0185 C   0  0  0  0  0  0  0  0  0  0  0  0
  128.3673  142.6574  143.1266 C   0  0  0  0  0  0  0  0  0  0  0  0
  127.9034  143.2420  144.2300 N   0  0  0  0  0  0  0  0  0  0  0  0
  127.5093  142.4972  145.2740 C   0  0  0  0  0  0  0  0  0  0  0  0
  127.0406  143.1757  146.3833 C   0  0  0  0  0  0  0  0  0  0  0  0
  126.6369  142.4101  147.4565 C   0  0  0  0  0  0  0  0  0  0  0  0
  126.7010  141.0380  147.4163 C   0  0  0  0  0  0  0  0  0  0  0  0
  127.1756  140.3875  146.2897 C   0  0  0  0  0  0  0  0  0  0  0  0
  127.5846  141.1007  145.2075 C   0  0  0  0  0  0  0  0  0  0  0  0
  1  2  1  0
  2  3  1  0
  3  4  1  0
  4  5  1  0
  5  6  1  0
  6  7  1  0
  7  8  1  0
  8  9  2  0
  9 10  1  0
 10 11  2  0
 11 12  1  0
 12 13  2  0
 13 14  1  0
 14 15  2  0
 15 16  1  0
 16 17  2  0
 17  8  1  0
 17 12  1  0
M  END
$$$$
