
     RDKit          3D

 19 20  0  0  0  0  0  0  0  0999 V2000
  116.5931  149.5570  141.8036 C   0  0  0  0  0  0  0  0  0  0  0  0
  118.1129  149.6034  141.7422 C   0  0  0  0  0  0  0  0  0  0  0  0
  118.6208  148.5956  140.8085 N   0  0  0  0  0  0  0  0  0  0  0  0
  119.0425  149.2632  139.5990 C   0  0  0  0  0  0  0  0  0  0  0  0
  119.9550  148.4372  138.7800 C   0  0  0  0  0  0  0  0  0  0  0  0
  121.2998  148.3222  139.0374 C   0  0  0  0  0  0  0  0  0  0  0  0
  122.1543  147.5569  138.2797 C   0  0  0  0  0  0  0  0  0  0  0  0
  121.6147  146.8695  137.2011 C   0  0  0  0  0  0  0  0  0  0  0  0
  120.2743  146.9708  136.9274 C   0  0  0  0  0  0  0  0  0  0  0  0
  119.7534  146.2807  135.8507 O   0  0  0  0  0  0  0  0  0  0  0  0
  119.4383  147.7424  137.6988 C   0  0  0  0  0  0  0  0  0  0  0  0
  117.7142  147.8505  137.3195 Cl  0  0  0  0  0  0  0  0  0  0  0  0
  118.6284  149.3945  143.1162 C   0  0  0  0  0  0  0  0  0  0  0  0
  118.7692  150.4801  143.9595 C   0  0  0  0  0  0  0  0  0  0  0  0
  119.2451  150.3328  145.2476 C   0  0  0  0  0  0  0  0  0  0  0  0
  119.5944  149.0894  145.7274 C   0  0  0  0  0  0  0  0  0  0  0  0
  120.2044  148.9067  147.3766 Cl  0  0  0  0  0  0  0  0  0  0  0  0
  119.4615  147.9939  144.9027 C   0  0  0  0  0  0  0  0  0  0  0  0
  118.9812  148.1728  143.6154 C   0  0  0  0  0  0  0  0  0  0  0  0
  1  2  1  0
  2  3  1  0
  3  4  1  0
  4  5  1  0
  5  6  2  0
  6  7  1  0
  7  8  2  0
  8  9  1  0
  9 10  1  0
  9 11  2  0
 11 12  1  0
  2 13  1  0
 13 14  2  0
 14 15  1  0
 15 16  2  0
 16 17  1  0
 16 18  1  0
 18 19  2  0
 11  5  1  0
 19 13  1  0
M  END
$$$$
