
     RDKit          3D

 19 20  0  0  0  0  0  0  0  0999 V2000
  126.6170  145.2658  147.3990 C   0  0  0  0  0  0  0  0  0  0  0  0
  127.6012  144.6368  148.3744 C   0  0  0  0  0  0  0  0  0  0  0  0
  127.3495  143.1997  148.5040 N   0  0  0  0  0  0  0  0  0  0  0  0
  127.8750  142.5354  147.3340 C   0  0  0  0  0  0  0  0  0  0  0  0
  127.6609  141.0729  147.3640 C   0  0  0  0  0  0  0  0  0  0  0  0
  127.5236  140.3571  148.5287 C   0  0  0  0  0  0  0  0  0  0  0  0
  127.3252  138.9972  148.5643 C   0  0  0  0  0  0  0  0  0  0  0  0
  127.2623  138.3259  147.3508 C   0  0  0  0  0  0  0  0  0  0  0  0
  127.3969  139.0224  146.1766 C   0  0  0  0  0  0  0  0  0  0  0  0
  127.3320  138.3396  144.9781 O   0  0  0  0  0  0  0  0  0  0  0  0
  127.5947  140.3826  146.1649 C   0  0  0  0  0  0  0  0  0  0  0  0
  127.7630  141.2508  144.6334 Cl  0  0  0  0  0  0  0  0  0  0  0  0
  127.4665  145.3415  149.6715 C   0  0  0  0  0  0  0  0  0  0  0  0
  128.0500  144.7997  150.8010 C   0  0  0  0  0  0  0  0  0  0  0  0
  127.9505  145.4215  152.0301 C   0  0  0  0  0  0  0  0  0  0  0  0
  127.2611  146.6072  152.1616 C   0  0  0  0  0  0  0  0  0  0  0  0
  127.1357  147.3982  153.7377 Cl  0  0  0  0  0  0  0  0  0  0  0  0
  126.6720  147.1642  151.0477 C   0  0  0  0  0  0  0  0  0  0  0  0
  126.7889  146.5174  149.8280 C   0  0  0  0  0  0  0  0  0  0  0  0
  1  2  1  0
  2  3  1  0
  3  4  1  0
  4  5  1  0
  5  6  2  0
  6  7  1  0
  7  8  2  0
  8  9  1  0
  9 10  1  0
  9 11  2  0
 11 12  1  0
  2 13  1  0
 13 14  2  0
 14 15  1  0
 15 16  2  0
 16 17  1  0
 16 18  1  0
 18 19  2  0
 11  5  1  0
 19 13  1  0
M  END
$$$$
