
     RDKit          3D

 19 20  0  0  0  0  0  0  0  0999 V2000
  126.5128  144.3801  147.1838 C   0  0  0  0  0  0  0  0  0  0  0  0
  127.5144  143.8644  148.2069 C   0  0  0  0  0  0  0  0  0  0  0  0
  127.2734  142.4485  148.4939 N   0  0  0  0  0  0  0  0  0  0  0  0
  128.4078  141.6868  148.0256 C   0  0  0  0  0  0  0  0  0  0  0  0
  128.0586  140.7599  146.9280 C   0  0  0  0  0  0  0  0  0  0  0  0
  128.1665  141.0935  145.5996 C   0  0  0  0  0  0  0  0  0  0  0  0
  127.8428  140.2373  144.5738 C   0  0  0  0  0  0  0  0  0  0  0  0
  127.3845  138.9720  144.9145 C   0  0  0  0  0  0  0  0  0  0  0  0
  127.2698  138.6192  146.2353 C   0  0  0  0  0  0  0  0  0  0  0  0
  126.8121  137.3569  146.5572 O   0  0  0  0  0  0  0  0  0  0  0  0
  127.5992  139.4921  147.2448 C   0  0  0  0  0  0  0  0  0  0  0  0
  127.4410  139.0054  148.9377 Cl  0  0  0  0  0  0  0  0  0  0  0  0
  127.3932  144.7040  149.4225 C   0  0  0  0  0  0  0  0  0  0  0  0
  126.7233  145.9104  149.3489 C   0  0  0  0  0  0  0  0  0  0  0  0
  126.5858  146.7249  150.4557 C   0  0  0  0  0  0  0  0  0  0  0  0
  127.1177  146.3516  151.6706 C   0  0  0  0  0  0  0  0  0  0  0  0
  126.9399  147.3988  153.0839 Cl  0  0  0  0  0  0  0  0  0  0  0  0
  127.7893  145.1525  151.7654 C   0  0  0  0  0  0  0  0  0  0  0  0
  127.9112  144.3565  150.6379 C   0  0  0  0  0  0  0  0  0  0  0  0
  1  2  1  0
  2  3  1  0
  3  4  1  0
  4  5  1  0
  5  6  2  0
  6  7  1  0
  7  8  2  0
  8  9  1  0
  9 10  1  0
  9 11  2  0
 11 12  1  0
  2 13  1  0
 13 14  2  0
 14 15  1  0
 15 16  2  0
 16 17  1  0
 16 18  1  0
 18 19  2  0
 11  5  1  0
 19 13  1  0
M  END
$$$$
