
     RDKit          3D

 18 20  0  0  0  0  0  0  0  0999 V2000
  -11.9377   30.7523   15.3848 C   0  0  0  0  0  0  0  0  0  0  0  0
  -11.5536   31.5474   14.2797 O   0  0  0  0  0  0  0  0  0  0  0  0
  -11.5669   31.0892   12.9704 C   0  0  0  0  0  0  0  0  0  0  0  0
  -12.6660   30.8960   12.1596 C   0  0  0  0  0  0  0  0  0  0  0  0
  -12.5271   30.4319   10.8695 C   0  0  0  0  0  0  0  0  0  0  0  0
  -11.2653   30.1508   10.3664 C   0  0  0  0  0  0  0  0  0  0  0  0
  -10.1396   30.3319   11.1489 C   0  0  0  0  0  0  0  0  0  0  0  0
   -8.8975   30.0431   10.6193 C   0  0  0  0  0  0  0  0  0  0  0  0
   -8.7127   29.6225    9.4638 O   0  0  0  0  0  0  0  0  0  0  0  0
   -7.7925   30.2253   11.4000 C   0  0  0  0  0  0  0  0  0  0  0  0
   -6.4773   29.9869   11.0315 C   0  0  0  0  0  0  0  0  0  0  0  0
   -5.4719   30.2240   11.9452 C   0  0  0  0  0  0  0  0  0  0  0  0
   -5.6790   30.6883   13.2199 C   0  0  0  0  0  0  0  0  0  0  0  0
   -4.6668   30.9231   14.1287 O   0  0  0  0  0  0  0  0  0  0  0  0
   -6.9997   30.9302   13.5971 C   0  0  0  0  0  0  0  0  0  0  0  0
   -8.0072   30.6964   12.6924 C   0  0  0  0  0  0  0  0  0  0  0  0
   -9.2196   30.9492   13.1262 O   0  0  0  0  0  0  0  0  0  0  0  0
  -10.3089   30.7997   12.4424 C   0  0  0  0  0  0  0  0  0  0  0  0
  1  2  1  0
  2  3  1  0
  3  4  2  0
  4  5  1  0
  5  6  2  0
  6  7  1  0
  7  8  1  0
  8  9  2  0
  8 10  1  0
 10 11  2  0
 11 12  1  0
 12 13  2  0
 13 14  1  0
 13 15  1  0
 15 16  2  0
 16 17  1  0
 17 18  1  0
 18  3  1  0
 18  7  2  0
 16 10  1  0
M  END
$$$$
