
     RDKit          3D

 23 22  0  0  0  0  0  0  0  0999 V2000
  127.4974  146.6810  150.2611 C   0  0  0  0  0  0  0  0  0  0  0  0
  127.1162  145.8546  149.3101 C   0  0  0  0  0  0  0  0  0  0  0  0
  126.7297  145.0323  148.3800 C   0  0  0  0  0  0  0  0  0  0  0  0
  125.5214  145.3617  147.7598 N   0  0  0  0  0  0  0  0  0  0  0  0
  127.5706  143.9177  148.1134 C   0  0  0  0  0  0  0  0  0  0  0  0
  129.0021  143.6218  149.0675 Cl  0  0  0  0  0  0  0  0  0  0  0  0
  127.3081  143.0567  147.1340 C   0  0  0  0  0  0  0  0  0  0  0  0
  128.1715  141.8830  146.8510 C   0  0  0  0  0  0  0  0  0  0  0  0
  127.7912  141.2906  145.5761 N   0  0  0  0  0  0  0  0  0  0  0  0
  127.7710  139.8471  145.7918 C   0  0  0  0  0  0  0  0  0  0  0  0
  127.5037  139.1236  144.5213 C   0  0  0  0  0  0  0  0  0  0  0  0
  128.3450  139.1228  143.5097 C   0  0  0  0  0  0  0  0  0  0  0  0
  128.0296  138.3943  142.3556 N   0  0  0  0  0  0  0  0  0  0  0  0
  128.7399  138.3266  141.2956 C   0  0  0  0  0  0  0  0  0  0  0  0
  128.3164  137.6790  140.1082 N   0  0  0  0  0  0  0  0  0  0  0  0
  128.6084  135.9804  139.9086 Cl  0  0  0  0  0  0  0  0  0  0  0  0
  126.7511  139.5892  146.7784 N   0  0  0  0  0  0  0  0  0  0  0  0
  127.0442  139.0129  147.8851 C   0  0  0  0  0  0  0  0  0  0  0  0
  128.4487  138.8270  148.3384 C   0  0  0  0  0  0  0  0  0  0  0  0
  125.9608  138.5476  148.6817 N   0  0  0  0  0  0  0  0  0  0  0  0
  126.2152  138.0271  150.0108 C   0  0  0  0  0  0  0  0  0  0  0  0
  125.7093  139.0390  151.0354 C   0  0  0  0  0  0  0  0  0  0  0  0
  125.6775  138.4124  152.2921 O   0  0  0  0  0  0  0  0  0  0  0  0
  1  2  2  0
  2  3  2  0
  3  4  1  0
  3  5  1  0
  5  6  1  0
  5  7  2  3
  7  8  1  0
  8  9  1  0
  9 10  1  0
 10 11  1  0
 11 12  2  3
 12 13  1  0
 13 14  2  3
 14 15  1  0
 15 16  1  0
 10 17  1  0
 17 18  2  3
 18 19  1  0
 18 20  1  0
 20 21  1  0
 21 22  1  0
 22 23  1  0
M  END
$$$$
