
     RDKit          3D

 21 22  0  0  0  0  0  0  0  0999 V2000
   22.1750   47.6524   27.7682 C   0  0  0  0  0  0  0  0  0  0  0  0
   22.5029   47.1847   29.1049 C   0  0  0  0  0  0  0  0  0  0  0  0
   21.8058   46.2816   29.6229 O   0  0  0  0  0  0  0  0  0  0  0  0
   23.6367   47.7406   29.8795 C   0  0  0  0  0  0  0  0  0  0  0  0
   23.9252   47.3650   31.1543 C   0  0  0  0  0  0  0  0  0  0  0  0
   23.3035   46.4065   32.1041 C   0  0  0  0  0  0  0  0  0  0  0  0
   25.3212   48.3404   31.4883 S   0  0  0  0  0  0  0  0  0  0  0  0
   25.4276   49.1448   29.9889 C   0  0  0  0  0  0  0  0  0  0  0  0
   26.3922   50.1360   29.5567 N   0  0  0  0  0  0  0  0  0  0  0  0
   27.5484   50.3373   30.3183 C   0  0  0  0  0  0  0  0  0  0  0  0
   27.6069   49.7766   31.4631 O   0  0  0  0  0  0  0  0  0  0  0  0
   28.6454   51.1218   29.8906 N   0  0  0  0  0  0  0  0  0  0  0  0
   29.7933   51.2069   30.6966 C   0  0  0  0  0  0  0  0  0  0  0  0
   30.8861   50.4110   30.3619 C   0  0  0  0  0  0  0  0  0  0  0  0
   32.0220   50.4629   31.1189 C   0  0  0  0  0  0  0  0  0  0  0  0
   33.2140   49.6303   30.7985 C   0  0  0  0  0  0  0  0  0  0  0  0
   32.0689   51.3042   32.2048 C   0  0  0  0  0  0  0  0  0  0  0  0
   30.9839   52.0875   32.5284 C   0  0  0  0  0  0  0  0  0  0  0  0
   29.8219   52.0630   31.7900 C   0  0  0  0  0  0  0  0  0  0  0  0
   28.6346   52.8898   32.1060 C   0  0  0  0  0  0  0  0  0  0  0  0
   24.4184   48.6388   29.3315 N   0  0  0  0  0  0  0  0  0  0  0  0
  1  2  1  0
  2  3  2  0
  2  4  1  0
  4  5  2  0
  5  6  1  0
  5  7  1  0
  7  8  1  0
  8  9  1  0
  9 10  1  0
 10 11  2  0
 10 12  1  0
 12 13  1  0
 13 14  2  0
 14 15  1  0
 15 16  1  0
 15 17  2  0
 17 18  1  0
 18 19  2  0
 19 20  1  0
  8 21  2  0
 21  4  1  0
 19 13  1  0
M  END
$$$$
