
     RDKit          3D

 21 22  0  0  0  0  0  0  0  0999 V2000
   32.9893   50.6295   30.1802 C   0  0  0  0  0  0  0  0  0  0  0  0
   32.5265   50.4783   31.5498 C   0  0  0  0  0  0  0  0  0  0  0  0
   33.2787   49.9332   32.3907 O   0  0  0  0  0  0  0  0  0  0  0  0
   31.1916   50.9477   31.9882 C   0  0  0  0  0  0  0  0  0  0  0  0
   30.6903   52.1721   31.6734 C   0  0  0  0  0  0  0  0  0  0  0  0
   31.2156   53.3234   30.8949 C   0  0  0  0  0  0  0  0  0  0  0  0
   29.1405   52.1152   32.4520 S   0  0  0  0  0  0  0  0  0  0  0  0
   29.2511   50.5476   33.1130 C   0  0  0  0  0  0  0  0  0  0  0  0
   28.2796   49.8287   33.9125 N   0  0  0  0  0  0  0  0  0  0  0  0
   26.9221   49.9351   33.5914 C   0  0  0  0  0  0  0  0  0  0  0  0
   26.5121   51.0475   33.1190 O   0  0  0  0  0  0  0  0  0  0  0  0
   25.9890   48.8853   33.7610 N   0  0  0  0  0  0  0  0  0  0  0  0
   24.6265   49.1212   33.5109 C   0  0  0  0  0  0  0  0  0  0  0  0
   24.1350   48.8248   32.2420 C   0  0  0  0  0  0  0  0  0  0  0  0
   22.8164   49.0390   31.9566 C   0  0  0  0  0  0  0  0  0  0  0  0
   22.2477   48.7368   30.6143 C   0  0  0  0  0  0  0  0  0  0  0  0
   21.9910   49.5466   32.9315 C   0  0  0  0  0  0  0  0  0  0  0  0
   22.4853   49.8368   34.1832 C   0  0  0  0  0  0  0  0  0  0  0  0
   23.8079   49.6346   34.5087 C   0  0  0  0  0  0  0  0  0  0  0  0
   24.3767   49.9342   35.8429 C   0  0  0  0  0  0  0  0  0  0  0  0
   30.4340   50.1623   32.7143 N   0  0  0  0  0  0  0  0  0  0  0  0
  1  2  1  0
  2  3  2  0
  2  4  1  0
  4  5  2  0
  5  6  1  0
  5  7  1  0
  7  8  1  0
  8  9  1  0
  9 10  1  0
 10 11  2  0
 10 12  1  0
 12 13  1  0
 13 14  2  0
 14 15  1  0
 15 16  1  0
 15 17  2  0
 17 18  1  0
 18 19  2  0
 19 20  1  0
  8 21  2  0
 21  4  1  0
 19 13  1  0
M  END
$$$$
