
     RDKit          3D

 23 24  0  0  0  0  0  0  0  0999 V2000
    7.6042    4.6710  -19.7832 C   0  0  0  0  0  0  0  0  0  0  0  0
    6.6307    4.9751  -20.8712 C   0  0  0  0  0  0  0  0  0  0  0  0
    5.2073    5.0785  -20.3856 C   0  0  0  0  0  0  0  0  0  0  0  0
    4.3167    4.0182  -20.9753 C   0  0  0  0  0  0  0  0  0  0  0  0
    3.1674    4.5975  -21.5968 N   0  0  0  0  0  0  0  0  0  0  0  0
    2.6388    3.8231  -22.6773 C   0  0  0  0  0  0  0  0  0  0  0  0
    1.9521    5.0802  -20.4728 S   0  0  0  0  0  6  0  0  0  0  0  0
    0.5966    4.6783  -20.9228 O   0  0  0  0  0  0  0  0  0  0  0  0
    2.2338    4.3237  -19.1853 O   0  0  0  0  0  0  0  0  0  0  0  0
    1.9873    6.7751  -20.1293 C   0  0  0  0  0  0  0  0  0  0  0  0
    2.4828    7.1875  -18.9104 C   0  0  0  0  0  0  0  0  0  0  0  0
    2.5024    8.5421  -18.6556 C   0  0  0  0  0  0  0  0  0  0  0  0
    2.0408    9.4437  -19.5925 C   0  0  0  0  0  0  0  0  0  0  0  0
    1.5417    9.0511  -20.8166 C   0  0  0  0  0  0  0  0  0  0  0  0
    1.0704    9.9955  -21.7698 N   0  0  0  0  0  0  0  0  0  0  0  0
    0.8428    9.5797  -23.1099 C   0  0  0  0  0  0  0  0  0  0  0  0
    1.1784    8.4051  -23.4390 O   0  0  0  0  0  0  0  0  0  0  0  0
    0.2433   10.4467  -24.1103 C   0  0  0  0  0  0  0  0  0  0  0  0
   -0.2253   11.7372  -23.9440 C   0  0  0  0  0  0  0  0  0  0  0  0
   -0.7106   12.1817  -25.1516 C   0  0  0  0  0  0  0  0  0  0  0  0
   -0.5172   11.1332  -26.0186 C   0  0  0  0  0  0  0  0  0  0  0  0
    0.0489   10.1258  -25.3659 O   0  0  0  0  0  0  0  0  0  0  0  0
    1.5247    7.6949  -21.0658 C   0  0  0  0  0  0  0  0  0  0  0  0
  1  2  1  0
  2  3  1  0
  3  4  1  0
  4  5  1  0
  5  6  1  0
  5  7  1  0
  7  8  2  0
  7  9  2  0
  7 10  1  0
 10 11  2  0
 11 12  1  0
 12 13  2  0
 13 14  1  0
 14 15  1  0
 15 16  1  0
 16 17  2  0
 16 18  1  0
 18 19  2  0
 19 20  1  0
 20 21  2  0
 21 22  1  0
 14 23  2  0
 23 10  1  0
 22 18  1  0
M  END
$$$$
