
     RDKit          3D

 23 25  0  0  0  0  0  0  0  0999 V2000
  127.3539  137.3829  143.9420 B   0  0  0  0  0  0  0  0  0  0  0  0
  127.3907  138.7962  144.5968 C   0  0  0  0  0  0  0  0  0  0  0  0
  127.4199  139.9217  143.9020 C   0  0  0  0  0  0  0  0  0  0  0  0
  127.4500  141.0629  144.8451 C   0  0  0  0  0  0  0  0  0  0  0  0
  127.4832  142.3667  144.6732 C   0  0  0  0  0  0  0  0  0  0  0  0
  127.5095  143.3485  145.6780 N   0  0  0  0  0  0  0  0  0  0  0  0
  127.2373  142.9677  147.1807 P   0  0  0  0  0  5  0  0  0  0  0  0
  128.4387  143.8518  148.1271 N   0  0  0  0  0  0  0  0  0  0  0  0
  127.9391  144.7070  149.1445 C   0  0  0  0  0  0  0  0  0  0  0  0
  128.8084  145.1325  150.1310 C   0  0  0  0  0  0  0  0  0  0  0  0
  128.3882  145.9603  151.1469 C   0  0  0  0  0  0  0  0  0  0  0  0
  127.0750  146.3606  151.1637 C   0  0  0  0  0  0  0  0  0  0  0  0
  126.5748  147.4241  152.4855 Cl  0  0  0  0  0  0  0  0  0  0  0  0
  126.2029  145.9434  150.1881 C   0  0  0  0  0  0  0  0  0  0  0  0
  124.5297  146.4859  150.2583 Cl  0  0  0  0  0  0  0  0  0  0  0  0
  126.6153  145.1162  149.1695 C   0  0  0  0  0  0  0  0  0  0  0  0
  127.4547  141.2446  147.3533 N   0  0  0  0  0  0  0  0  0  0  0  0
  127.6809  140.5005  148.8598 B   0  0  0  0  0  2  0  0  0  0  0  0
  127.8982  139.8791  150.4629 C   0  0  0  0  0  0  0  0  0  0  0  0
  129.0362  140.5924  151.1510 C   0  0  0  0  0  0  0  0  0  0  0  0
  128.7024  141.8619  151.5740 O   0  0  0  0  0  0  0  0  0  0  0  0
  127.4341  140.4577  146.1679 C   0  0  0  0  0  0  0  0  0  0  0  0
  127.3989  139.1185  146.0146 C   0  0  0  0  0  0  0  0  0  0  0  0
  1  2  1  0
  2  3  2  0
  3  4  1  0
  4  5  2  0
  5  6  1  0
  6  7  2  0
  7  8  1  0
  8  9  1  0
  9 10  2  0
 10 11  1  0
 11 12  2  0
 12 13  1  0
 12 14  1  0
 14 15  1  0
 14 16  2  0
  7 17  1  0
 17 18  1  0
 18 19  1  0
 19 20  1  0
 20 21  1  0
 17 22  1  0
 22 23  2  0
 23  2  1  0
 22  4  1  0
 16  9  1  0
M  CHG  1  18   1
M  END
$$$$
