
     RDKit          3D

 25 27  0  0  0  0  0  0  0  0999 V2000
  151.6745  161.0042  156.7799 C   0  0  0  0  0  0  0  0  0  0  0  0
  150.7360  160.1758  157.4213 O   0  0  0  0  0  0  0  0  0  0  0  0
  150.4211  158.9004  157.0191 C   0  0  0  0  0  0  0  0  0  0  0  0
  150.7352  158.4726  155.7621 C   0  0  0  0  0  0  0  0  0  0  0  0
  150.4099  157.1726  155.3636 C   0  0  0  0  0  0  0  0  0  0  0  0
  149.7744  156.3071  156.2193 C   0  0  0  0  0  0  0  0  0  0  0  0
  149.4374  154.9527  155.8274 C   0  0  0  0  0  0  0  0  0  0  0  0
  148.3843  154.1961  156.2601 N   0  0  0  0  0  0  0  0  0  0  0  0
  148.4284  153.0424  155.6873 O   0  0  0  0  0  0  0  0  0  0  0  0
  149.4481  152.9609  154.8876 N   0  0  0  0  0  0  0  0  0  0  0  0
  150.1120  154.1547  154.9508 C   0  0  0  0  0  0  0  0  0  0  0  0
  151.3012  154.4808  154.2252 N   0  0  0  0  0  0  0  0  0  0  0  0
  151.3185  154.6795  152.8395 C   0  0  0  0  0  0  0  0  0  0  0  0
  150.1581  154.6218  152.2872 O   0  0  0  0  0  0  0  0  0  0  0  0
  152.4590  154.9360  151.9751 C   0  0  0  0  0  0  0  0  0  0  0  0
  153.6497  155.3769  152.5726 C   0  0  0  0  0  0  0  0  0  0  0  0
  154.7496  155.6321  151.8050 C   0  0  0  0  0  0  0  0  0  0  0  0
  154.7210  155.4661  150.4417 C   0  0  0  0  0  0  0  0  0  0  0  0
  153.5571  155.0351  149.8571 C   0  0  0  0  0  0  0  0  0  0  0  0
  152.4113  154.7641  150.6124 C   0  0  0  0  0  0  0  0  0  0  0  0
  151.2711  154.3330  149.9631 O   0  0  0  0  0  0  0  0  0  0  0  0
  151.3022  154.1373  148.5696 C   0  0  0  0  0  0  0  0  0  0  0  0
  149.4670  156.7657  157.4878 C   0  0  0  0  0  0  0  0  0  0  0  0
  149.7870  158.0564  157.8909 C   0  0  0  0  0  0  0  0  0  0  0  0
  149.4546  158.5390  159.2499 C   0  0  0  0  0  0  0  0  0  0  0  0
  1  2  1  0
  2  3  1  0
  3  4  2  0
  4  5  1  0
  5  6  2  0
  6  7  1  0
  7  8  2  0
  8  9  1  0
  9 10  1  0
 10 11  2  0
 11 12  1  0
 12 13  1  0
 13 14  2  0
 13 15  1  0
 15 16  2  0
 16 17  1  0
 17 18  2  0
 18 19  1  0
 19 20  2  0
 20 21  1  0
 21 22  1  0
  6 23  1  0
 23 24  2  0
 24 25  1  0
 24  3  1  0
 11  7  1  0
 20 15  1  0
M  END
$$$$
