
     RDKit          3D

 22 24  0  0  0  0  0  0  0  0999 V2000
    7.6466   30.4000   -1.5064 C   0  0  0  0  0  0  0  0  0  0  0  0
    6.2910   31.0879   -1.6073 C   0  0  0  0  0  0  0  0  0  0  0  0
    5.5365   30.8928   -0.2961 C   0  0  0  0  0  0  0  0  0  0  0  0
    5.5842   30.5956   -2.7009 O   0  0  0  0  0  0  0  0  0  0  0  0
    4.5005   31.1315   -3.3382 C   0  0  0  0  0  0  0  0  0  0  0  0
    4.0603   32.4085   -3.1108 C   0  0  0  0  0  0  0  0  0  0  0  0
    2.9447   32.8547   -3.8152 C   0  0  0  0  0  0  0  0  0  0  0  0
    2.3055   32.0288   -4.7151 C   0  0  0  0  0  0  0  0  0  0  0  0
    2.7533   30.7426   -4.9406 C   0  0  0  0  0  0  0  0  0  0  0  0
    2.1654   29.9490   -5.7839 O   0  0  0  0  0  0  0  0  0  0  0  0
    2.5713   28.7004   -6.0264 C   0  0  0  0  0  0  0  0  0  0  0  0
    1.8040   27.9298   -7.0055 C   0  0  0  0  0  0  0  0  0  0  0  0
    1.9404   26.5480   -7.0590 C   0  0  0  0  0  0  0  0  0  0  0  0
    1.2362   25.7782   -7.9663 C   0  0  0  0  0  0  0  0  0  0  0  0
    0.3593   26.3434   -8.8679 C   0  0  0  0  0  0  0  0  0  0  0  0
   -0.3568   25.5853   -9.7867 O   0  0  0  0  0  0  0  0  0  0  0  0
    0.2166   27.7123   -8.8233 C   0  0  0  0  0  0  0  0  0  0  0  0
    0.9285   28.4954   -7.9054 C   0  0  0  0  0  0  0  0  0  0  0  0
    3.6632   28.1770   -5.3769 C   0  0  0  0  0  0  0  0  0  0  0  0
    4.3128   28.9993   -4.4700 C   0  0  0  0  0  0  0  0  0  0  0  0
    5.3083   28.6025   -3.8408 O   0  0  0  0  0  0  0  0  0  0  0  0
    3.8536   30.2934   -4.2501 C   0  0  0  0  0  0  0  0  0  0  0  0
  1  2  1  0
  2  3  1  0
  2  4  1  0
  4  5  1  0
  5  6  2  0
  6  7  1  0
  7  8  2  0
  8  9  1  0
  9 10  1  0
 10 11  1  0
 11 12  1  0
 12 13  2  0
 13 14  1  0
 14 15  2  0
 15 16  1  0
 15 17  1  0
 17 18  2  0
 11 19  2  0
 19 20  1  0
 20 21  2  0
 20 22  1  0
 22  5  1  0
 22  9  2  0
 18 12  1  0
M  END
$$$$
