
     RDKit          3D

 22 24  0  0  0  0  0  0  0  0999 V2000
   -6.8408   -5.7279  -60.9087 C   0  0  0  0  0  0  0  0  0  0  0  0
   -6.4757   -7.1981  -61.0706 C   0  0  0  0  0  0  0  0  0  0  0  0
   -7.5900   -8.0545  -60.4778 C   0  0  0  0  0  0  0  0  0  0  0  0
   -5.2422   -7.4534  -60.4783 O   0  0  0  0  0  0  0  0  0  0  0  0
   -3.9881   -7.1821  -60.9488 C   0  0  0  0  0  0  0  0  0  0  0  0
   -3.6399   -7.3280  -62.2655 C   0  0  0  0  0  0  0  0  0  0  0  0
   -2.3329   -7.0232  -62.6378 C   0  0  0  0  0  0  0  0  0  0  0  0
   -1.4195   -6.5871  -61.7020 C   0  0  0  0  0  0  0  0  0  0  0  0
   -1.7755   -6.4417  -60.3762 C   0  0  0  0  0  0  0  0  0  0  0  0
   -0.9302   -6.0322  -59.4793 O   0  0  0  0  0  0  0  0  0  0  0  0
   -1.2403   -5.8803  -58.1896 C   0  0  0  0  0  0  0  0  0  0  0  0
   -0.1773   -5.4100  -57.3007 C   0  0  0  0  0  0  0  0  0  0  0  0
   -0.1515   -5.8226  -55.9741 C   0  0  0  0  0  0  0  0  0  0  0  0
    0.8328   -5.4052  -55.0974 C   0  0  0  0  0  0  0  0  0  0  0  0
    1.8430   -4.5552  -55.4951 C   0  0  0  0  0  0  0  0  0  0  0  0
    2.8403   -4.1254  -54.6278 O   0  0  0  0  0  0  0  0  0  0  0  0
    1.8268   -4.1401  -56.8081 C   0  0  0  0  0  0  0  0  0  0  0  0
    0.8311   -4.5611  -57.6992 C   0  0  0  0  0  0  0  0  0  0  0  0
   -2.5063   -6.1576  -57.7331 C   0  0  0  0  0  0  0  0  0  0  0  0
   -3.4321   -6.5968  -58.6661 C   0  0  0  0  0  0  0  0  0  0  0  0
   -4.5986   -6.8691  -58.3353 O   0  0  0  0  0  0  0  0  0  0  0  0
   -3.0632   -6.7401  -59.9993 C   0  0  0  0  0  0  0  0  0  0  0  0
  1  2  1  0
  2  3  1  0
  2  4  1  0
  4  5  1  0
  5  6  2  0
  6  7  1  0
  7  8  2  0
  8  9  1  0
  9 10  1  0
 10 11  1  0
 11 12  1  0
 12 13  2  0
 13 14  1  0
 14 15  2  0
 15 16  1  0
 15 17  1  0
 17 18  2  0
 11 19  2  0
 19 20  1  0
 20 21  2  0
 20 22  1  0
 22  5  1  0
 22  9  2  0
 18 12  1  0
M  END
$$$$
