
     RDKit          3D

 25 28  0  0  0  0  0  0  0  0999 V2000
  152.1568  157.4652  150.6574 C   0  0  0  0  0  0  0  0  0  0  0  0
  152.1620  157.0665  149.2996 O   0  0  0  0  0  0  0  0  0  0  0  0
  151.6974  155.7910  149.0069 C   0  0  0  0  0  0  0  0  0  0  0  0
  151.5162  155.3453  147.7188 C   0  0  0  0  0  0  0  0  0  0  0  0
  151.0539  154.0746  147.4598 C   0  0  0  0  0  0  0  0  0  0  0  0
  150.7548  153.1994  148.4831 C   0  0  0  0  0  0  0  0  0  0  0  0
  150.2628  151.8476  148.1887 C   0  0  0  0  0  0  0  0  0  0  0  0
  150.0235  151.0454  149.1477 O   0  0  0  0  0  0  0  0  0  0  0  0
  150.0299  151.3604  146.8871 N   0  0  0  0  0  0  0  0  0  0  0  0
  149.5714  150.0179  146.6441 C   0  0  0  0  0  0  0  0  0  0  0  0
  148.4707  149.3796  147.2425 C   0  0  0  0  0  0  0  0  0  0  0  0
  148.4472  148.1614  146.7045 C   0  0  0  0  0  0  0  0  0  0  0  0
  149.4892  148.0705  145.8202 N   0  0  0  0  0  0  0  0  0  0  0  0
  150.1656  149.1775  145.7793 N   0  0  0  0  0  0  0  0  0  0  0  0
  151.3241  149.5080  144.9936 C   0  0  0  0  0  0  0  0  0  0  0  0
  151.3019  150.5409  144.0824 C   0  0  0  0  0  0  0  0  0  0  0  0
  152.4326  150.8483  143.3289 C   0  0  0  0  0  0  0  0  0  0  0  0
  153.6039  150.1425  143.4612 C   0  0  0  0  0  0  0  0  0  0  0  0
  153.6201  149.1096  144.3750 C   0  0  0  0  0  0  0  0  0  0  0  0
  152.4990  148.7990  145.1272 C   0  0  0  0  0  0  0  0  0  0  0  0
  147.3897  147.2405  147.1387 C   0  0  0  0  0  0  0  0  0  0  0  0
  146.7608  148.0836  148.6384 S   0  0  0  0  0  0  0  0  0  0  0  0
  147.4526  149.7279  148.2254 C   0  0  0  0  0  0  0  0  0  0  0  0
  150.9388  153.6532  149.7617 C   0  0  0  0  0  0  0  0  0  0  0  0
  151.4042  154.9309  150.0583 C   0  0  0  0  0  0  0  0  0  0  0  0
  1  2  1  0
  2  3  1  0
  3  4  2  0
  4  5  1  0
  5  6  2  0
  6  7  1  0
  7  8  2  0
  7  9  1  0
  9 10  1  0
 10 11  2  0
 11 12  1  0
 12 13  2  0
 13 14  1  0
 14 15  1  0
 15 16  2  0
 16 17  1  0
 17 18  2  0
 18 19  1  0
 19 20  2  0
 12 21  1  0
 21 22  1  0
 22 23  1  0
  6 24  1  0
 24 25  2  0
 25  3  1  0
 14 10  1  0
 20 15  1  0
 23 11  1  0
M  END
$$$$
