
     RDKit          3D

 25 28  0  0  0  0  0  0  0  0999 V2000
  151.8412  163.1073  159.2218 C   0  0  0  0  0  0  0  0  0  0  0  0
  151.8611  162.6259  157.8913 O   0  0  0  0  0  0  0  0  0  0  0  0
  151.4010  161.3340  157.6727 C   0  0  0  0  0  0  0  0  0  0  0  0
  151.3605  160.7628  156.4227 C   0  0  0  0  0  0  0  0  0  0  0  0
  150.8989  159.4791  156.2372 C   0  0  0  0  0  0  0  0  0  0  0  0
  150.4589  158.7164  157.2989 C   0  0  0  0  0  0  0  0  0  0  0  0
  149.9698  157.3489  157.0830 C   0  0  0  0  0  0  0  0  0  0  0  0
  149.6528  156.6313  158.0855 O   0  0  0  0  0  0  0  0  0  0  0  0
  149.8215  156.7569  155.8128 N   0  0  0  0  0  0  0  0  0  0  0  0
  149.3251  155.4161  155.6476 C   0  0  0  0  0  0  0  0  0  0  0  0
  148.3486  154.7742  156.4296 C   0  0  0  0  0  0  0  0  0  0  0  0
  148.2275  153.5594  155.8970 C   0  0  0  0  0  0  0  0  0  0  0  0
  149.0940  153.4739  154.8398 N   0  0  0  0  0  0  0  0  0  0  0  0
  149.7536  154.5810  154.6851 N   0  0  0  0  0  0  0  0  0  0  0  0
  150.7529  154.9162  153.7065 C   0  0  0  0  0  0  0  0  0  0  0  0
  150.4932  154.8267  152.3566 C   0  0  0  0  0  0  0  0  0  0  0  0
  151.4721  155.1550  151.4214 C   0  0  0  0  0  0  0  0  0  0  0  0
  152.7232  155.5771  151.8013 C   0  0  0  0  0  0  0  0  0  0  0  0
  152.9772  155.6647  153.1541 C   0  0  0  0  0  0  0  0  0  0  0  0
  152.0080  155.3396  154.0890 C   0  0  0  0  0  0  0  0  0  0  0  0
  147.2638  152.6360  156.5081 C   0  0  0  0  0  0  0  0  0  0  0  0
  146.9150  153.4697  158.1014 S   0  0  0  0  0  0  0  0  0  0  0  0
  147.5237  155.1165  157.5812 C   0  0  0  0  0  0  0  0  0  0  0  0
  150.5034  159.2946  158.5391 C   0  0  0  0  0  0  0  0  0  0  0  0
  150.9640  160.5891  158.7615 C   0  0  0  0  0  0  0  0  0  0  0  0
  1  2  1  0
  2  3  1  0
  3  4  2  0
  4  5  1  0
  5  6  2  0
  6  7  1  0
  7  8  2  0
  7  9  1  0
  9 10  1  0
 10 11  2  0
 11 12  1  0
 12 13  2  0
 13 14  1  0
 14 15  1  0
 15 16  2  0
 16 17  1  0
 17 18  2  0
 18 19  1  0
 19 20  2  0
 12 21  1  0
 21 22  1  0
 22 23  1  0
  6 24  1  0
 24 25  2  0
 25  3  1  0
 14 10  1  0
 20 15  1  0
 23 11  1  0
M  END
$$$$
