
     RDKit          3D

  6  5  0  0  0  0  0  0  0  0999 V2000
   45.3499   28.5560   18.6176 C   0  0  0  0  0  0  0  0  0  0  0  0
   46.5001   29.0956   18.2484 C   0  0  0  0  0  0  0  0  0  0  0  0
   46.8759   29.0798   16.7269 B   0  0  0  0  0  2  0  0  0  0  0  0
   45.5390   29.1745   15.8621 C   0  0  0  0  0  0  0  0  0  0  0  0
   47.4081   29.7011   19.2661 C   0  0  0  0  0  0  0  0  0  0  0  0
   46.9013   29.3166   20.9230 Cl  0  0  0  0  0  0  0  0  0  0  0  0
  1  2  2  0
  2  3  1  0
  3  4  1  0
  2  5  1  0
  5  6  1  0
M  CHG  1   3  -1
M  RAD  1   3   3
M  END
$$$$
