
     RDKit          3D

  6  5  0  0  0  0  0  0  0  0999 V2000
   43.2134   44.8245   25.2841 C   0  0  0  0  0  0  0  0  0  0  0  0
   43.5307   45.2961   24.0894 C   0  0  0  0  0  0  0  0  0  0  0  0
   42.4483   45.2455   22.9571 B   0  0  0  0  0  2  0  0  0  0  0  0
   41.0115   45.4978   23.6023 C   0  0  0  0  0  0  0  0  0  0  0  0
   44.8898   45.8596   23.8397 C   0  0  0  0  0  0  0  0  0  0  0  0
   45.8555   45.9518   25.3259 Cl  0  0  0  0  0  0  0  0  0  0  0  0
  1  2  2  0
  2  3  1  0
  3  4  1  0
  2  5  1  0
  5  6  1  0
M  CHG  1   3  -1
M  RAD  1   3   3
M  END
$$$$
