
     RDKit          3D

 13 13  0  0  0  0  0  0  0  0999 V2000
  150.0696  153.4980  157.1876 C   0  0  0  0  0  0  0  0  0  0  0  0
  149.5058  154.7984  157.0211 O   0  0  0  0  0  0  0  0  0  0  0  0
  150.2893  155.8896  156.6306 C   0  0  0  0  0  0  0  0  0  0  0  0
  151.4786  155.6117  156.3363 O   0  0  0  0  0  0  0  0  0  0  0  0
  149.7099  157.2607  156.5836 C   0  0  0  0  0  0  0  0  0  0  0  0
  150.5883  158.3492  155.4774 S   0  0  0  0  0  0  0  0  0  0  0  0
  150.7691  157.5405  153.8956 C   0  0  0  0  0  0  0  0  0  0  0  0
  149.7651  156.8425  153.2748 C   0  0  0  0  0  0  0  0  0  0  0  0
  149.9319  156.2153  152.0419 C   0  0  0  0  0  0  0  0  0  0  0  0
  151.1877  156.3367  151.4669 C   0  0  0  0  0  0  0  0  0  0  0  0
  151.4283  155.7453  150.2518 O   0  0  0  0  0  0  0  0  0  0  0  0
  152.2127  157.0339  152.0726 C   0  0  0  0  0  0  0  0  0  0  0  0
  151.9964  157.6293  153.2797 C   0  0  0  0  0  0  0  0  0  0  0  0
  1  2  1  0
  2  3  1  0
  3  4  2  0
  3  5  1  0
  5  6  1  0
  6  7  1  0
  7  8  2  0
  8  9  1  0
  9 10  2  0
 10 11  1  0
 10 12  1  0
 12 13  2  0
 13  7  1  0
M  END
$$$$
