
     RDKit          3D

 22 22  0  0  0  0  0  0  0  0999 V2000
  127.4768  126.2382  117.4612 C   0  0  0  0  0  0  0  0  0  0  0  0
  128.6497  125.6691  117.0719 C   0  0  0  0  0  0  0  0  0  0  0  0
  128.4908  124.4827  115.7945 Cl  0  0  0  0  0  0  0  0  0  0  0  0
  129.8468  126.0802  117.7196 C   0  0  0  0  0  0  0  0  0  0  0  0
  130.4411  127.3199  117.2207 N   0  0  0  0  0  0  0  0  0  0  0  0
  130.4840  125.5221  118.6935 C   0  0  0  0  0  0  0  0  0  0  0  0
  131.8983  125.4967  118.8742 C   0  0  0  0  0  0  0  0  0  0  0  0
  132.4043  124.8717  119.9579 C   0  0  0  0  0  0  0  0  0  0  0  0
  133.8167  124.8404  120.1025 N   0  0  0  0  0  0  0  0  0  0  0  0
  134.3166  124.4528  121.4294 C   0  0  0  0  0  0  0  0  0  0  0  0
  135.7424  123.9929  121.2949 C   0  0  0  0  0  0  0  0  0  0  0  0
  136.4911  123.5388  122.2761 C   0  0  0  0  0  0  0  0  0  0  0  0
  136.1867  123.3561  123.6735 C   0  0  0  0  0  0  0  0  0  0  0  0
  135.5746  122.3343  124.2358 C   0  0  0  0  0  0  0  0  0  0  0  0
  135.0207  121.1084  123.7226 C   0  0  0  0  0  0  0  0  0  0  0  0
  133.8299  120.8093  123.2588 C   0  0  0  0  0  0  0  0  0  0  0  0
  132.6635  121.5979  123.1054 N   0  0  0  0  0  0  0  0  0  0  0  0
  131.3348  121.0097  123.3041 C   0  0  0  0  0  0  0  0  0  0  0  0
  131.3366  119.5577  122.7949 C   0  0  0  0  0  0  0  0  0  0  0  0
  131.0495  119.4920  121.4506 O   0  0  0  0  0  0  0  0  0  0  0  0
  132.7384  123.0140  122.7601 C   0  0  0  0  0  0  0  0  0  0  0  0
  133.5886  123.5422  122.0946 N   0  0  0  0  0  0  0  0  0  0  0  0
  1  2  2  0
  2  3  1  0
  2  4  1  0
  4  5  1  0
  4  6  2  3
  6  7  1  0
  7  8  2  3
  8  9  1  0
  9 10  1  0
 10 11  1  0
 11 12  2  0
 12 13  1  0
 13 14  2  0
 14 15  1  0
 15 16  2  0
 16 17  1  0
 17 18  1  0
 18 19  1  0
 19 20  1  0
 17 21  1  0
 21 22  2  0
 22 10  1  0
M  END
$$$$
