
     RDKit          3D

 22 22  0  0  0  0  0  0  0  0999 V2000
  127.1858  135.0134  143.5608 C   0  0  0  0  0  0  0  0  0  0  0  0
  127.2761  136.2292  144.1650 C   0  0  0  0  0  0  0  0  0  0  0  0
  126.8661  136.2249  145.8669 Cl  0  0  0  0  0  0  0  0  0  0  0  0
  127.6802  137.3440  143.3806 C   0  0  0  0  0  0  0  0  0  0  0  0
  127.5623  137.1736  141.9328 N   0  0  0  0  0  0  0  0  0  0  0  0
  128.1297  138.4927  143.7607 C   0  0  0  0  0  0  0  0  0  0  0  0
  128.0249  139.7210  143.0438 C   0  0  0  0  0  0  0  0  0  0  0  0
  128.6848  140.8030  143.5076 C   0  0  0  0  0  0  0  0  0  0  0  0
  128.0952  141.5276  144.5771 N   0  0  0  0  0  0  0  0  0  0  0  0
  127.1823  142.6127  144.1896 C   0  0  0  0  0  0  0  0  0  0  0  0
  127.8904  143.5188  143.2201 C   0  0  0  0  0  0  0  0  0  0  0  0
  127.3859  144.6136  142.6945 C   0  0  0  0  0  0  0  0  0  0  0  0
  126.0956  145.2290  142.8820 C   0  0  0  0  0  0  0  0  0  0  0  0
  125.7230  146.0340  143.8557 C   0  0  0  0  0  0  0  0  0  0  0  0
  126.3975  146.5686  145.0100 C   0  0  0  0  0  0  0  0  0  0  0  0
  126.5379  146.1149  146.2335 C   0  0  0  0  0  0  0  0  0  0  0  0
  126.0650  144.9302  146.8490 N   0  0  0  0  0  0  0  0  0  0  0  0
  125.6594  144.9334  148.2584 C   0  0  0  0  0  0  0  0  0  0  0  0
  126.5263  145.9374  149.0381 C   0  0  0  0  0  0  0  0  0  0  0  0
  127.8642  145.6270  148.9499 O   0  0  0  0  0  0  0  0  0  0  0  0
  125.9519  143.6773  146.1091 C   0  0  0  0  0  0  0  0  0  0  0  0
  126.6464  143.3238  145.1938 N   0  0  0  0  0  0  0  0  0  0  0  0
  1  2  2  0
  2  3  1  0
  2  4  1  0
  4  5  1  0
  4  6  2  3
  6  7  1  0
  7  8  2  3
  8  9  1  0
  9 10  1  0
 10 11  1  0
 11 12  2  0
 12 13  1  0
 13 14  2  0
 14 15  1  0
 15 16  2  0
 16 17  1  0
 17 18  1  0
 18 19  1  0
 19 20  1  0
 17 21  1  0
 21 22  2  0
 22 10  1  0
M  END
$$$$
