
     RDKit          3D

 17 18  0  0  0  0  0  0  0  0999 V2000
   -6.3254   10.4832    3.2629 C   0  0  0  0  0  0  0  0  0  0  0  0
   -7.1071   10.3160    1.9836 C   0  0  0  0  0  0  0  0  0  0  0  0
   -6.6560   11.0071    0.7530 C   0  0  0  0  0  0  0  0  0  0  0  0
   -8.1905    9.5503    1.9789 C   0  0  0  0  0  0  0  0  0  0  0  0
   -8.4269    8.0831    1.9136 C   0  0  0  0  0  0  0  0  0  0  0  0
   -9.8234    7.7788    1.8039 O   0  0  0  0  0  0  0  0  0  0  0  0
  -10.1429    6.4154    1.8659 C   0  0  0  0  0  0  0  0  0  0  0  0
  -11.4717    6.0243    1.9333 C   0  0  0  0  0  0  0  0  0  0  0  0
  -11.8334    4.6763    1.9965 C   0  0  0  0  0  0  0  0  0  0  0  0
  -10.8484    3.7100    1.9918 C   0  0  0  0  0  0  0  0  0  0  0  0
  -11.2404    2.3780    2.0556 C   0  0  0  0  0  0  0  0  0  0  0  0
  -10.1837    1.4670    2.0461 C   0  0  0  0  0  0  0  0  0  0  0  0
   -8.8565    1.8876    1.9777 C   0  0  0  0  0  0  0  0  0  0  0  0
   -7.9459    0.9981    1.9733 O   0  0  0  0  0  0  0  0  0  0  0  0
   -8.5906    3.1758    1.9206 O   0  0  0  0  0  0  0  0  0  0  0  0
   -9.5262    4.0978    1.9248 C   0  0  0  0  0  0  0  0  0  0  0  0
   -9.1711    5.4372    1.8622 C   0  0  0  0  0  0  0  0  0  0  0  0
  1  2  1  0
  2  3  1  0
  2  4  2  3
  4  5  1  0
  5  6  1  0
  6  7  1  0
  7  8  2  0
  8  9  1  0
  9 10  2  0
 10 11  1  0
 11 12  2  0
 12 13  1  0
 13 14  2  0
 13 15  1  0
 15 16  1  0
 16 17  2  0
 17  7  1  0
 16 10  1  0
M  END
$$$$
