
     RDKit          3D

 25 26  0  0  0  0  0  0  0  0999 V2000
    9.5220   31.8484   -7.1760 C   0  0  0  0  0  0  0  0  0  0  0  0
    9.2268   31.0213   -6.0860 O   0  0  0  0  0  0  0  0  0  0  0  0
    7.9541   31.1027   -5.5166 C   0  0  0  0  0  0  0  0  0  0  0  0
    6.9282   31.7731   -6.1224 C   0  0  0  0  0  0  0  0  0  0  0  0
    5.6467   31.8581   -5.5559 C   0  0  0  0  0  0  0  0  0  0  0  0
    4.6592   32.6062   -6.3398 C   0  0  0  0  0  0  0  0  0  0  0  0
    5.3771   31.2624   -4.3568 C   0  0  0  0  0  0  0  0  0  0  0  0
    4.0630   31.3373   -3.7246 C   0  0  2  0  0  0  0  0  0  0  0  0
    4.1680   31.4069   -2.2165 C   0  0  0  0  0  0  0  0  0  0  0  0
    3.0808   30.3762   -4.0785 N   0  0  0  0  0  0  0  0  0  0  0  0
    2.2052   30.5811   -5.1942 C   0  0  0  0  0  0  0  0  0  0  0  0
    1.7779   31.7540   -5.3598 O   0  0  0  0  0  0  0  0  0  0  0  0
    1.8272   29.5035   -6.0876 C   0  0  0  0  0  0  0  0  0  0  0  0
    2.3323   28.2322   -6.0550 C   0  0  0  0  0  0  0  0  0  0  0  0
    1.9337   27.2293   -6.9388 C   0  0  0  0  0  0  0  0  0  0  0  0
    0.9888   27.5183   -7.8929 C   0  0  0  0  0  0  0  0  0  0  0  0
    0.5421   26.4760   -8.8436 C   0  0  0  0  0  0  0  0  0  0  0  0
    0.7788   25.0746   -8.2726 C   0  0  0  0  0  0  0  0  0  0  0  0
    0.3687   24.0839   -9.2493 N   0  0  0  0  0  4  0  0  0  0  0  0
    0.4572   28.7844   -7.9573 C   0  0  0  0  0  0  0  0  0  0  0  0
    0.8661   29.7607   -7.0739 C   0  0  0  0  0  0  0  0  0  0  0  0
    6.4391   30.5753   -3.7412 C   0  0  0  0  0  0  0  0  0  0  0  0
    7.6925   30.4883   -4.2890 C   0  0  0  0  0  0  0  0  0  0  0  0
    8.7487   29.8229   -3.7067 O   0  0  0  0  0  0  0  0  0  0  0  0
    8.7359   29.1226   -2.5008 C   0  0  0  0  0  0  0  0  0  0  0  0
  1  2  1  0
  2  3  1  0
  3  4  2  0
  4  5  1  0
  5  6  1  0
  5  7  2  0
  7  8  1  0
  8  9  1  1
  8 10  1  0
 10 11  1  0
 11 12  2  0
 11 13  1  0
 13 14  2  0
 14 15  1  0
 15 16  2  0
 16 17  1  0
 17 18  1  0
 18 19  1  0
 16 20  1  0
 20 21  2  0
  7 22  1  0
 22 23  2  0
 23 24  1  0
 24 25  1  0
 23  3  1  0
 21 13  1  0
M  CHG  1  19   1
M  END
$$$$
