
     RDKit          3D

 19 19  0  0  0  0  0  0  0  0999 V2000
  147.3041  145.2058  143.7870 C   0  0  0  0  0  0  0  0  0  0  0  0
  148.6781  145.0937  144.5009 C   0  0  0  0  0  0  0  0  0  0  0  0
  149.3695  144.0229  143.7451 C   0  0  0  0  0  0  0  0  0  0  0  0
  148.3197  144.6853  145.9206 C   0  0  0  0  0  0  0  0  0  0  0  0
  149.2211  146.4643  144.4187 C   0  0  0  0  0  0  0  0  0  0  0  0
  150.5982  146.7762  144.7584 C   0  0  0  0  0  0  0  0  0  0  0  0
  151.6507  146.3893  143.7578 C   0  0  0  0  0  0  0  0  0  0  0  0
  150.9544  145.8948  145.9836 C   0  0  0  0  0  0  0  0  0  0  0  0
  150.7475  148.1339  145.1789 N   0  0  0  0  0  0  0  0  0  0  0  0
  152.0630  148.5934  145.4227 C   0  0  0  0  0  0  0  0  0  0  0  0
  152.0220  150.1065  145.6811 C   0  0  1  0  0  0  0  0  0  0  0  0
  151.0587  150.3497  146.6590 O   0  0  0  0  0  0  0  0  0  0  0  0
  153.3586  150.6201  146.0394 C   0  0  0  0  0  0  0  0  0  0  0  0
  153.4604  151.8092  146.7305 C   0  0  0  0  0  0  0  0  0  0  0  0
  154.6975  152.3236  147.0851 C   0  0  0  0  0  0  0  0  0  0  0  0
  155.8590  151.6562  146.7540 C   0  0  0  0  0  0  0  0  0  0  0  0
  157.4378  152.2814  147.1886 Cl  0  0  0  0  0  0  0  0  0  0  0  0
  155.7794  150.4750  146.0686 C   0  0  0  0  0  0  0  0  0  0  0  0
  154.5254  149.9636  145.7149 C   0  0  0  0  0  0  0  0  0  0  0  0
  1  2  1  0
  2  3  1  0
  2  4  1  0
  2  5  1  0
  5  6  1  0
  6  7  1  0
  6  8  1  0
  6  9  1  0
  9 10  1  0
 10 11  1  0
 11 12  1  1
 11 13  1  0
 13 14  2  0
 14 15  1  0
 15 16  2  0
 16 17  1  0
 16 18  1  0
 18 19  2  0
 19 13  1  0
M  END
$$$$
