
     RDKit          3D

 19 19  0  0  0  0  0  0  0  0999 V2000
  151.5319  158.6120  155.6115 C   0  0  0  0  0  0  0  0  0  0  0  0
  151.6578  157.2883  154.8100 C   0  0  0  0  0  0  0  0  0  0  0  0
  153.0701  157.2935  154.3615 C   0  0  0  0  0  0  0  0  0  0  0  0
  150.6689  157.4575  153.6679 C   0  0  0  0  0  0  0  0  0  0  0  0
  151.2406  156.2574  155.7812 C   0  0  0  0  0  0  0  0  0  0  0  0
  149.8766  156.1565  156.2695 C   0  0  0  0  0  0  0  0  0  0  0  0
  148.8380  155.6772  155.2947 C   0  0  0  0  0  0  0  0  0  0  0  0
  149.4147  157.6055  156.5724 C   0  0  0  0  0  0  0  0  0  0  0  0
  149.8061  155.4421  157.5053 N   0  0  0  0  0  0  0  0  0  0  0  0
  148.5274  155.0107  157.9296 C   0  0  0  0  0  0  0  0  0  0  0  0
  148.6857  154.1489  159.1905 C   0  0  1  0  0  0  0  0  0  0  0  0
  149.2779  154.9355  160.1774 O   0  0  0  0  0  0  0  0  0  0  0  0
  147.3921  153.5710  159.6043 C   0  0  0  0  0  0  0  0  0  0  0  0
  146.3875  153.4300  158.6700 C   0  0  0  0  0  0  0  0  0  0  0  0
  145.1594  152.8915  159.0200 C   0  0  0  0  0  0  0  0  0  0  0  0
  144.9127  152.4829  160.3147 C   0  0  0  0  0  0  0  0  0  0  0  0
  143.3699  151.7982  160.7876 Cl  0  0  0  0  0  0  0  0  0  0  0  0
  145.8962  152.6143  161.2564 C   0  0  0  0  0  0  0  0  0  0  0  0
  147.1333  153.1594  160.8932 C   0  0  0  0  0  0  0  0  0  0  0  0
  1  2  1  0
  2  3  1  0
  2  4  1  0
  2  5  1  0
  5  6  1  0
  6  7  1  0
  6  8  1  0
  6  9  1  0
  9 10  1  0
 10 11  1  0
 11 12  1  1
 11 13  1  0
 13 14  2  0
 14 15  1  0
 15 16  2  0
 16 17  1  0
 16 18  1  0
 18 19  2  0
 19 13  1  0
M  END
$$$$
