
     RDKit          3D

 16 17  0  0  0  0  0  0  0  0999 V2000
  125.1233  136.0114  148.3837 C   0  0  0  0  0  0  0  0  0  0  0  0
  125.7419  137.3798  148.4092 C   0  0  0  0  0  0  0  0  0  0  0  0
  126.2234  137.7778  147.0564 C   0  0  0  0  0  0  0  0  0  0  0  0
  125.7244  138.7861  146.4950 O   0  0  0  0  0  0  0  0  0  0  0  0
  127.2076  137.0896  146.3665 O   0  0  0  0  0  0  0  0  0  0  0  0
  127.5959  137.4910  145.0709 C   0  0  0  0  0  0  0  0  0  0  0  0
  127.9725  138.7872  144.8082 C   0  0  0  0  0  0  0  0  0  0  0  0
  128.3570  139.2087  143.5518 C   0  0  0  0  0  0  0  0  0  0  0  0
  128.3518  138.2701  142.5464 C   0  0  0  0  0  0  0  0  0  0  0  0
  128.7337  138.6583  141.2651 C   0  0  0  0  0  0  0  0  0  0  0  0
  128.7169  137.6931  140.2825 C   0  0  0  0  0  0  0  0  0  0  0  0
  128.3420  136.3908  140.5309 C   0  0  0  0  0  0  0  0  0  0  0  0
  128.3358  135.5145  139.5986 O   0  0  0  0  0  0  0  0  0  0  0  0
  127.9933  136.0832  141.7523 O   0  0  0  0  0  0  0  0  0  0  0  0
  127.9867  136.9542  142.7362 C   0  0  0  0  0  0  0  0  0  0  0  0
  127.6101  136.5948  144.0256 C   0  0  0  0  0  0  0  0  0  0  0  0
  1  2  1  0
  2  3  1  0
  3  4  2  0
  3  5  1  0
  5  6  1  0
  6  7  2  0
  7  8  1  0
  8  9  2  0
  9 10  1  0
 10 11  2  0
 11 12  1  0
 12 13  2  0
 12 14  1  0
 14 15  1  0
 15 16  2  0
 16  6  1  0
 15  9  1  0
M  END
$$$$
