
     RDKit          3D

 23 22  0  0  0  0  0  0  0  0999 V2000
  112.5014  113.4467   88.1231 C   0  0  0  0  0  0  0  0  0  0  0  0
  113.4891  113.7299   87.3141 C   0  0  0  0  0  0  0  0  0  0  0  0
  113.4306  114.7927   86.3586 N   0  0  0  0  0  0  0  0  0  0  0  0
  114.4986  114.8873   85.3893 C   0  0  0  0  0  0  0  0  0  0  0  0
  114.3589  116.1829   84.5750 C   0  0  0  0  0  0  0  0  0  0  0  0
  114.1705  117.2805   85.4049 N   0  0  0  0  0  0  0  0  0  0  0  0
  114.7892  117.9284   86.2047 C   0  0  0  0  0  0  0  0  0  0  0  0
  114.3097  118.9356   87.0521 N   0  0  0  0  0  0  0  0  0  0  0  0
  114.9783  119.3628   88.2246 C   0  0  0  0  0  0  0  0  0  0  0  0
  114.8897  118.3825   89.3030 C   0  0  0  0  0  0  0  0  0  0  0  0
  115.4280  118.5787   90.4833 C   0  0  0  0  0  0  0  0  0  0  0  0
  115.2484  117.5585   91.5072 C   0  0  0  0  0  0  0  0  0  0  0  0
  115.1041  116.6750   92.3660 C   0  0  0  0  0  0  0  0  0  0  0  0
  114.9386  115.7278   93.2614 F   0  0  0  0  0  0  0  0  0  0  0  0
  114.7120  113.6934   84.5461 C   0  0  0  0  0  0  0  0  0  0  0  0
  115.8198  113.7697   83.6678 O   0  0  0  0  0  0  0  0  0  0  0  0
  116.8350  113.1093   84.3779 C   0  0  0  0  0  0  0  0  0  0  0  0
  118.0881  113.8828   84.5494 C   0  0  0  0  0  0  0  0  0  0  0  0
  119.1237  113.0644   85.2580 C   0  0  0  0  0  0  0  0  0  0  0  0
  120.4342  113.8092   85.4062 C   0  0  0  0  0  0  0  0  0  0  0  0
  121.4343  112.9858   86.1903 C   0  0  0  0  0  0  0  0  0  0  0  0
  122.6561  113.7356   86.3085 N   0  0  0  0  0  0  0  0  0  0  0  0
  123.2010  113.9869   87.4539 C   0  0  0  0  0  0  0  0  0  0  0  0
  1  2  2  0
  2  3  1  0
  3  4  1  0
  4  5  1  0
  5  6  1  0
  6  7  2  3
  7  8  1  0
  8  9  1  0
  9 10  1  0
 10 11  2  3
 11 12  1  0
 12 13  3  0
 13 14  1  0
  4 15  1  0
 15 16  1  0
 16 17  1  0
 17 18  1  0
 18 19  1  0
 19 20  1  0
 20 21  1  0
 21 22  1  0
 22 23  2  0
M  END
$$$$
