
     RDKit          3D

 19 20  0  0  0  0  0  0  0  0999 V2000
  148.9557  155.1056  148.9681 C   0  0  0  0  0  0  0  0  0  0  0  0
  149.6363  155.4529  150.2464 C   0  0  0  0  0  0  0  0  0  0  0  0
  148.9976  156.0648  151.2126 C   0  0  0  0  0  0  0  0  0  0  0  0
  149.5898  156.4378  152.4886 C   0  0  0  0  0  0  0  0  0  0  0  0
  151.0090  156.0801  152.6539 C   0  0  0  0  0  0  0  0  0  0  0  0
  151.2249  155.1515  153.8490 C   0  0  0  0  0  0  0  0  0  0  0  0
  150.3122  155.4645  154.9545 C   0  0  0  0  0  0  0  0  0  0  0  0
  149.9993  156.6650  155.4385 C   0  0  0  0  0  0  0  0  0  0  0  0
  148.8599  156.6984  156.7843 Cl  0  0  0  0  0  0  0  0  0  0  0  0
  150.4895  157.9448  154.9838 C   0  0  0  0  0  0  0  0  0  0  0  0
  150.0582  159.3445  155.9397 Cl  0  0  0  0  0  0  0  0  0  0  0  0
  151.2275  158.2062  153.9327 C   0  0  0  0  0  0  0  0  0  0  0  0
  151.8111  157.3542  152.8684 C   0  0  0  0  0  0  0  0  0  0  0  0
  151.5981  155.4165  151.5340 N   0  0  0  0  0  0  0  0  0  0  0  0
  151.0594  155.1066  150.4418 C   0  0  0  0  0  0  0  0  0  0  0  0
  151.7888  154.4471  149.4292 N   0  0  0  0  0  0  0  0  0  0  0  0
  151.8078  153.0382  149.2256 C   0  0  0  0  0  0  0  0  0  0  0  0
  152.4409  152.6517  148.0491 O   0  0  0  0  0  0  0  0  0  0  0  0
  151.5459  152.4965  147.0715 N   0  0  0  0  0  0  0  0  0  0  0  0
  1  2  1  0
  2  3  2  0
  3  4  1  0
  4  5  1  0
  5  6  1  0
  6  7  1  0
  7  8  2  0
  8  9  1  0
  8 10  1  0
 10 11  1  0
 10 12  2  0
 12 13  1  0
  5 14  1  0
 14 15  2  0
 15 16  1  0
 16 17  1  0
 17 18  1  0
 18 19  1  0
 15  2  1  0
 13  5  1  0
M  END
$$$$
