
     RDKit          3D

 19 20  0  0  0  0  0  0  0  0999 V2000
  152.1980  156.5297  158.2505 C   0  0  0  0  0  0  0  0  0  0  0  0
  152.0622  157.8031  159.0108 C   0  0  0  0  0  0  0  0  0  0  0  0
  152.7177  158.8802  158.6560 C   0  0  0  0  0  0  0  0  0  0  0  0
  152.6396  160.1600  159.3445 C   0  0  0  0  0  0  0  0  0  0  0  0
  151.7475  160.1924  160.5161 C   0  0  0  0  0  0  0  0  0  0  0  0
  150.6376  161.2316  160.3560 C   0  0  0  0  0  0  0  0  0  0  0  0
  151.1039  162.4202  159.6330 C   0  0  0  0  0  0  0  0  0  0  0  0
  152.2450  163.0845  159.8062 C   0  0  0  0  0  0  0  0  0  0  0  0
  152.5063  164.4845  158.7659 Cl  0  0  0  0  0  0  0  0  0  0  0  0
  153.2942  162.7861  160.7522 C   0  0  0  0  0  0  0  0  0  0  0  0
  154.5908  163.9515  160.8924 Cl  0  0  0  0  0  0  0  0  0  0  0  0
  153.4102  161.7415  161.5353 C   0  0  0  0  0  0  0  0  0  0  0  0
  152.5715  160.5369  161.7470 C   0  0  0  0  0  0  0  0  0  0  0  0
  151.0869  158.9589  160.8055 N   0  0  0  0  0  0  0  0  0  0  0  0
  151.1745  157.8666  160.1903 C   0  0  0  0  0  0  0  0  0  0  0  0
  150.4480  156.7317  160.6105 N   0  0  0  0  0  0  0  0  0  0  0  0
  149.3338  156.7603  161.4962 C   0  0  0  0  0  0  0  0  0  0  0  0
  148.8146  155.5022  161.7824 O   0  0  0  0  0  0  0  0  0  0  0  0
  148.0152  155.0958  160.7942 N   0  0  0  0  0  0  0  0  0  0  0  0
  1  2  1  0
  2  3  2  0
  3  4  1  0
  4  5  1  0
  5  6  1  0
  6  7  1  0
  7  8  2  0
  8  9  1  0
  8 10  1  0
 10 11  1  0
 10 12  2  0
 12 13  1  0
  5 14  1  0
 14 15  2  0
 15 16  1  0
 16 17  1  0
 17 18  1  0
 18 19  1  0
 15  2  1  0
 13  5  1  0
M  END
$$$$
