
     RDKit          3D

 23 25  0  0  0  0  0  0  0  0999 V2000
   11.0301   30.9167  -10.2113 C   0  0  0  0  0  0  0  0  0  0  0  0
   11.6350   29.7965   -9.5990 O   0  0  0  0  0  0  0  0  0  0  0  0
   11.1032   29.2658   -8.4277 C   0  0  0  0  0  0  0  0  0  0  0  0
    9.9095   29.7506   -7.9461 C   0  0  0  0  0  0  0  0  0  0  0  0
    9.3323   29.2502   -6.7717 C   0  0  0  0  0  0  0  0  0  0  0  0
    8.0558   29.8117   -6.3119 C   0  0  0  0  0  0  0  0  0  0  0  0
    7.8435   29.8572   -4.9959 O   0  0  0  0  0  0  0  0  0  0  0  0
    6.7718   30.3219   -4.4381 C   0  0  0  0  0  0  0  0  0  0  0  0
    6.6565   30.3202   -3.0388 C   0  0  0  0  0  0  0  0  0  0  0  0
    5.5160   30.8152   -2.4558 C   0  0  0  0  0  0  0  0  0  0  0  0
    5.3405   30.8373   -0.9679 C   0  0  0  0  0  0  0  0  0  0  0  0
    4.4891   31.3115   -3.2405 C   0  0  0  0  0  0  0  0  0  0  0  0
    3.2637   31.8418   -2.5747 C   0  0  0  0  0  0  0  0  0  0  0  0
    4.5866   31.3203   -4.6115 C   0  0  0  0  0  0  0  0  0  0  0  0
    5.7440   30.8183   -5.2115 C   0  0  0  0  0  0  0  0  0  0  0  0
    5.8756   30.8115   -6.5827 C   0  0  0  0  0  0  0  0  0  0  0  0
    4.9624   31.2534   -7.2925 O   0  0  0  0  0  0  0  0  0  0  0  0
    7.0605   30.2940   -7.1043 C   0  0  0  0  0  0  0  0  0  0  0  0
    7.1878   30.2893   -8.4774 O   0  0  0  0  0  0  0  0  0  0  0  0
   10.0196   28.2615   -6.1398 C   0  0  0  0  0  0  0  0  0  0  0  0
   11.2448   27.7606   -6.6298 C   0  0  0  0  0  0  0  0  0  0  0  0
   11.7951   28.2649   -7.7845 C   0  0  0  0  0  0  0  0  0  0  0  0
   12.9894   27.8350   -8.3368 O   0  0  0  0  0  0  0  0  0  0  0  0
  1  2  1  0
  2  3  1  0
  3  4  2  0
  4  5  1  0
  5  6  1  0
  6  7  1  0
  7  8  1  0
  8  9  2  0
  9 10  1  0
 10 11  1  0
 10 12  2  0
 12 13  1  0
 12 14  1  0
 14 15  2  0
 15 16  1  0
 16 17  2  0
 16 18  1  0
 18 19  1  0
  5 20  2  0
 20 21  1  0
 21 22  2  0
 22 23  1  0
 22  3  1  0
 18  6  2  0
 15  8  1  0
M  END
$$$$
