
     RDKit          3D

 13 13  0  0  0  0  0  0  0  0999 V2000
   -7.0840   25.0799    9.4592 O   0  0  0  0  0  0  0  0  0  0  0  0
   -6.1581   26.0418    9.7768 C   0  0  0  0  0  0  0  0  0  0  0  0
   -5.1929   25.5983   10.8603 C   0  0  0  0  0  0  0  0  0  0  0  0
   -5.2910   24.3162   11.2480 N   0  0  0  0  0  0  0  0  0  0  0  0
   -4.0128   23.2271   11.4701 B   0  0  0  0  0  0  0  0  0  0  0  0
   -2.4412   23.8332   11.6979 N   0  0  0  0  0  0  0  0  0  0  0  0
   -1.9669   24.0039   12.9621 C   0  0  0  0  0  0  0  0  0  0  0  0
   -2.7915   23.9930   14.0782 C   0  0  0  0  0  0  0  0  0  0  0  0
   -4.0109   24.6129   14.1526 C   0  0  0  0  0  0  0  0  0  0  0  0
   -4.3560   25.8983   13.8128 C   0  0  0  0  0  0  0  0  0  0  0  0
   -3.9767   26.6351   12.7351 C   0  0  0  0  0  0  0  0  0  0  0  0
   -4.2907   26.4885   11.4098 C   0  0  0  0  0  0  0  0  0  0  0  0
   -3.4348   27.6411   10.0999 Br  0  0  0  0  0  0  0  0  0  0  0  0
  1  2  1  0
  2  3  1  0
  3  4  2  0
  4  5  1  0
  5  6  2  0
  6  7  1  0
  7  8  2  0
  8  9  1  0
  9 10  2  0
 10 11  1  0
 11 12  2  0
 12 13  1  0
 12  3  1  0
M  END
$$$$
