
     RDKit          3D

 22 24  0  0  0  0  0  0  0  0999 V2000
    6.2143   31.4284    0.8776 C   0  0  0  0  0  0  0  0  0  0  0  0
    6.6456   31.0063   -0.3825 O   0  0  0  0  0  0  0  0  0  0  0  0
    5.8213   30.8278   -1.4743 C   0  0  0  0  0  0  0  0  0  0  0  0
    4.5279   31.2962   -1.3892 C   0  0  0  0  0  0  0  0  0  0  0  0
    3.6631   31.1483   -2.4401 C   0  0  0  0  0  0  0  0  0  0  0  0
    2.3696   31.6154   -2.3581 F   0  0  0  0  0  0  0  0  0  0  0  0
    4.1142   30.5147   -3.5997 C   0  0  0  0  0  0  0  0  0  0  0  0
    3.2191   30.3740   -4.6578 N   0  0  0  0  0  0  0  0  0  0  0  0
    2.9092   29.2092   -5.3957 C   0  0  0  0  0  0  0  0  0  0  0  0
    3.4551   28.0197   -5.1932 N   0  0  0  0  0  0  0  0  0  0  0  0
    3.1564   26.9109   -5.8998 C   0  0  0  0  0  0  0  0  0  0  0  0
    2.2166   26.9769   -6.9193 C   0  0  0  0  0  0  0  0  0  0  0  0
    1.8674   25.8890   -7.6747 C   0  0  0  0  0  0  0  0  0  0  0  0
    0.9275   25.9560   -8.6938 C   0  0  0  0  0  0  0  0  0  0  0  0
    0.3525   27.1906   -8.9132 C   0  0  0  0  0  0  0  0  0  0  0  0
    0.6925   28.2956   -8.1622 C   0  0  0  0  0  0  0  0  0  0  0  0
    1.6401   28.2078   -7.1415 C   0  0  0  0  0  0  0  0  0  0  0  0
    1.9832   29.2610   -6.4046 N   0  0  0  0  0  0  0  0  0  0  0  0
    5.4021   30.0656   -3.6430 C   0  0  0  0  0  0  0  0  0  0  0  0
    6.2954   30.2027   -2.5950 C   0  0  0  0  0  0  0  0  0  0  0  0
    7.5889   29.7435   -2.6579 O   0  0  0  0  0  0  0  0  0  0  0  0
    8.1256   29.4264   -3.9277 C   0  0  0  0  0  0  0  0  0  0  0  0
  1  2  1  0
  2  3  1  0
  3  4  2  0
  4  5  1  0
  5  6  1  0
  5  7  2  0
  7  8  1  0
  8  9  1  0
  9 10  2  0
 10 11  1  0
 11 12  2  0
 12 13  1  0
 13 14  2  0
 14 15  1  0
 15 16  2  0
 16 17  1  0
 17 18  2  0
  7 19  1  0
 19 20  2  0
 20 21  1  0
 21 22  1  0
 20  3  1  0
 18  9  1  0
 17 12  1  0
M  END
$$$$
