
     RDKit          3D

 22 24  0  0  0  0  0  0  0  0999 V2000
    7.8282   31.3508   -1.1390 C   0  0  0  0  0  0  0  0  0  0  0  0
    6.4479   31.5670   -1.1425 O   0  0  0  0  0  0  0  0  0  0  0  0
    5.6172   31.3146   -2.2147 C   0  0  0  0  0  0  0  0  0  0  0  0
    6.1873   30.8284   -3.3715 C   0  0  0  0  0  0  0  0  0  0  0  0
    5.4143   30.5588   -4.4688 C   0  0  0  0  0  0  0  0  0  0  0  0
    5.9812   30.0727   -5.6266 F   0  0  0  0  0  0  0  0  0  0  0  0
    4.0385   30.7849   -4.3956 C   0  0  0  0  0  0  0  0  0  0  0  0
    3.2693   30.5044   -5.5227 N   0  0  0  0  0  0  0  0  0  0  0  0
    2.8265   29.2469   -5.9917 C   0  0  0  0  0  0  0  0  0  0  0  0
    3.3137   28.0800   -5.5982 N   0  0  0  0  0  0  0  0  0  0  0  0
    2.8881   26.8825   -6.0485 C   0  0  0  0  0  0  0  0  0  0  0  0
    1.8701   26.8237   -6.9905 C   0  0  0  0  0  0  0  0  0  0  0  0
    1.3914   25.6411   -7.4890 C   0  0  0  0  0  0  0  0  0  0  0  0
    0.3735   25.5834   -8.4308 C   0  0  0  0  0  0  0  0  0  0  0  0
   -0.1413   26.7934   -8.8477 C   0  0  0  0  0  0  0  0  0  0  0  0
    0.3289   27.9925   -8.3562 C   0  0  0  0  0  0  0  0  0  0  0  0
    1.3533   28.0297   -7.4093 C   0  0  0  0  0  0  0  0  0  0  0  0
    1.8223   29.1752   -6.9216 N   0  0  0  0  0  0  0  0  0  0  0  0
    3.5140   31.2670   -3.2316 C   0  0  0  0  0  0  0  0  0  0  0  0
    4.2734   31.5473   -2.1091 C   0  0  0  0  0  0  0  0  0  0  0  0
    3.7264   32.0324   -0.9457 O   0  0  0  0  0  0  0  0  0  0  0  0
    2.3409   32.3167   -0.9251 C   0  0  0  0  0  0  0  0  0  0  0  0
  1  2  1  0
  2  3  1  0
  3  4  2  0
  4  5  1  0
  5  6  1  0
  5  7  2  0
  7  8  1  0
  8  9  1  0
  9 10  2  0
 10 11  1  0
 11 12  2  0
 12 13  1  0
 13 14  2  0
 14 15  1  0
 15 16  2  0
 16 17  1  0
 17 18  2  0
  7 19  1  0
 19 20  2  0
 20 21  1  0
 21 22  1  0
 20  3  1  0
 18  9  1  0
 17 12  1  0
M  END
$$$$
