
     RDKit          3D

 16 17  0  0  0  0  0  0  0  0999 V2000
  121.2641  143.8817  131.8186 C   0  0  0  0  0  0  0  0  0  0  0  0
  122.7276  143.8376  132.0148 C   0  0  0  0  0  0  0  0  0  0  0  0
  123.4753  143.6725  130.9760 N   0  0  0  0  0  0  0  0  0  0  0  0
  124.9145  143.5995  130.9278 C   0  0  0  0  0  0  0  0  0  0  0  0
  125.4714  143.8644  129.7190 C   0  0  0  0  0  0  0  0  0  0  0  0
  126.8371  143.8324  129.5878 C   0  0  0  0  0  0  0  0  0  0  0  0
  127.6322  143.5359  130.6690 C   0  0  0  0  0  0  0  0  0  0  0  0
  127.0926  143.2605  131.9199 C   0  0  0  0  0  0  0  0  0  0  0  0
  125.7309  143.2975  132.0231 C   0  0  0  0  0  0  0  0  0  0  0  0
  125.3141  142.9684  133.3780 C   0  0  0  0  0  0  0  0  0  0  0  0
  126.2314  142.2198  134.1601 N   0  0  0  0  0  0  0  0  0  0  0  0
  126.0483  142.1095  135.5821 C   0  0  0  0  0  0  0  0  0  0  0  0
  126.7980  143.1419  136.3594 C   0  0  0  0  0  0  0  0  0  0  0  0
  126.3727  144.4012  135.8939 O   0  0  0  0  0  0  0  0  0  0  0  0
  124.1701  143.2740  133.9454 N   0  0  0  0  0  0  0  0  0  0  0  0
  123.1318  143.9830  133.3309 O   0  0  0  0  0  0  0  0  0  0  0  0
  1  2  1  0
  2  3  2  0
  3  4  1  0
  4  5  2  0
  5  6  1  0
  6  7  2  0
  7  8  1  0
  8  9  2  0
  9 10  1  0
 10 11  1  0
 11 12  1  0
 12 13  1  0
 13 14  1  0
 10 15  2  0
 15 16  1  0
 16  2  1  0
  9  4  1  0
M  END
$$$$
