
     RDKit          3D

 16 17  0  0  0  0  0  0  0  0999 V2000
  122.5881  134.2456  144.5656 C   0  0  0  0  0  0  0  0  0  0  0  0
  123.7515  134.9723  145.1137 C   0  0  0  0  0  0  0  0  0  0  0  0
  123.5950  135.6279  146.2142 N   0  0  0  0  0  0  0  0  0  0  0  0
  124.5804  136.4024  146.9271 C   0  0  0  0  0  0  0  0  0  0  0  0
  124.3132  136.6189  148.2399 C   0  0  0  0  0  0  0  0  0  0  0  0
  125.2067  137.3338  148.9976 C   0  0  0  0  0  0  0  0  0  0  0  0
  126.3597  137.8246  148.4331 C   0  0  0  0  0  0  0  0  0  0  0  0
  126.6622  137.6198  147.0921 C   0  0  0  0  0  0  0  0  0  0  0  0
  125.7559  136.9064  146.3601 C   0  0  0  0  0  0  0  0  0  0  0  0
  126.1949  136.7930  144.9773 C   0  0  0  0  0  0  0  0  0  0  0  0
  127.1111  137.7752  144.5197 N   0  0  0  0  0  0  0  0  0  0  0  0
  127.5898  137.7425  143.1641 C   0  0  0  0  0  0  0  0  0  0  0  0
  128.8727  136.9934  143.0050 C   0  0  0  0  0  0  0  0  0  0  0  0
  128.5421  135.6333  142.8502 O   0  0  0  0  0  0  0  0  0  0  0  0
  125.8163  135.8894  144.1031 N   0  0  0  0  0  0  0  0  0  0  0  0
  124.9046  134.8583  144.3561 O   0  0  0  0  0  0  0  0  0  0  0  0
  1  2  1  0
  2  3  2  0
  3  4  1  0
  4  5  2  0
  5  6  1  0
  6  7  2  0
  7  8  1  0
  8  9  2  0
  9 10  1  0
 10 11  1  0
 11 12  1  0
 12 13  1  0
 13 14  1  0
 10 15  2  0
 15 16  1  0
 16  2  1  0
  9  4  1  0
M  END
$$$$
