
     RDKit          3D

 16 17  0  0  0  0  0  0  0  0999 V2000
  128.4037  134.5497  140.0229 C   0  0  0  0  0  0  0  0  0  0  0  0
  128.4067  136.0229  140.1322 C   0  0  0  0  0  0  0  0  0  0  0  0
  129.0726  136.6959  139.2552 N   0  0  0  0  0  0  0  0  0  0  0  0
  129.2158  138.1278  139.1649 C   0  0  0  0  0  0  0  0  0  0  0  0
  129.5764  138.6017  137.9455 C   0  0  0  0  0  0  0  0  0  0  0  0
  129.7198  139.9549  137.7669 C   0  0  0  0  0  0  0  0  0  0  0  0
  129.5002  140.8206  138.8116 C   0  0  0  0  0  0  0  0  0  0  0  0
  129.1298  140.3668  140.0720 C   0  0  0  0  0  0  0  0  0  0  0  0
  128.9952  139.0157  140.2233 C   0  0  0  0  0  0  0  0  0  0  0  0
  128.6275  138.6912  141.5934 C   0  0  0  0  0  0  0  0  0  0  0  0
  128.9522  139.6550  142.5830 N   0  0  0  0  0  0  0  0  0  0  0  0
  128.2961  139.6278  143.8623 C   0  0  0  0  0  0  0  0  0  0  0  0
  127.5961  140.9042  144.1983 C   0  0  0  0  0  0  0  0  0  0  0  0
  126.6554  141.1422  143.1775 O   0  0  0  0  0  0  0  0  0  0  0  0
  128.0455  137.5913  142.0124 N   0  0  0  0  0  0  0  0  0  0  0  0
  127.6718  136.5181  141.1958 O   0  0  0  0  0  0  0  0  0  0  0  0
  1  2  1  0
  2  3  2  0
  3  4  1  0
  4  5  2  0
  5  6  1  0
  6  7  2  0
  7  8  1  0
  8  9  2  0
  9 10  1  0
 10 11  1  0
 11 12  1  0
 12 13  1  0
 13 14  1  0
 10 15  2  0
 15 16  1  0
 16  2  1  0
  9  4  1  0
M  END
$$$$
