
     RDKit          3D

 21 23  0  0  0  0  0  0  0  0999 V2000
  116.2568  149.3533  140.5542 C   0  0  0  0  0  0  0  0  0  0  0  0
  117.2298  148.8454  141.2795 C   0  0  0  0  0  0  0  0  0  0  0  0
  116.8192  147.4739  141.5280 O   0  0  0  0  0  0  0  0  0  0  0  0
  116.9987  146.5355  142.6265 C   0  0  0  0  0  0  0  0  0  0  0  0
  118.1358  147.0844  143.4560 C   0  0  0  0  0  0  0  0  0  0  0  0
  119.2478  146.6392  142.9626 N   0  0  0  0  0  0  0  0  0  0  0  0
  120.4935  146.9600  143.4793 C   0  0  0  0  0  0  0  0  0  0  0  0
  121.4074  147.4113  142.4220 N   0  0  0  0  0  0  0  0  0  0  0  0
  121.1930  147.5176  141.0188 C   0  0  0  0  0  0  0  0  0  0  0  0
  121.9251  146.5502  140.2555 C   0  0  0  0  0  0  0  0  0  0  0  0
  121.8821  146.4951  138.8881 C   0  0  0  0  0  0  0  0  0  0  0  0
  122.7667  145.3187  137.9545 Cl  0  0  0  0  0  0  0  0  0  0  0  0
  121.1127  147.3990  138.2296 C   0  0  0  0  0  0  0  0  0  0  0  0
  121.0074  147.3892  136.4676 Cl  0  0  0  0  0  0  0  0  0  0  0  0
  120.4113  148.3283  138.9507 C   0  0  0  0  0  0  0  0  0  0  0  0
  120.4086  148.4421  140.3634 C   0  0  0  0  0  0  0  0  0  0  0  0
  119.6435  149.5562  140.8749 N   0  0  0  0  0  0  0  0  0  0  0  0
  118.4916  149.5688  141.7367 C   0  0  0  0  0  0  0  0  0  0  0  0
  118.4931  150.1296  142.9949 C   0  0  0  0  0  0  0  0  0  0  0  0
  118.5732  149.3808  144.3161 C   0  0  0  0  0  0  0  0  0  0  0  0
  118.2110  148.0606  144.5467 C   0  0  0  0  0  0  0  0  0  0  0  0
  1  2  2  0
  2  3  1  0
  3  4  1  0
  4  5  1  0
  5  6  2  0
  6  7  1  0
  7  8  1  0
  8  9  1  0
  9 10  2  0
 10 11  1  0
 11 12  1  0
 11 13  2  0
 13 14  1  0
 13 15  1  0
 15 16  2  0
 16 17  1  0
 17 18  1  0
 18 19  2  0
 19 20  1  0
 20 21  2  0
 18  2  1  0
 21  5  1  0
 16  9  1  0
M  END
$$$$
