
     RDKit          3D

 22 23  0  0  0  0  0  0  0  0999 V2000
  145.9196  149.8054  163.6159 C   0  0  0  0  0  0  0  0  0  0  0  0
  147.1900  150.4576  163.9047 C   0  0  0  0  0  0  0  0  0  0  0  0
  148.1776  150.9647  164.1329 C   0  0  0  0  0  0  0  0  0  0  0  0
  147.4547  152.9783  163.9039 C   0  0  0  0  0  0  0  0  0  0  0  0
  147.8112  153.0667  164.4697 P   0  0  0  0  0  6  0  0  0  0  0  0
  148.1749  153.1536  165.0679 C   0  0  0  0  0  0  0  0  0  0  0  0
  148.4150  153.2100  165.4477 N   0  0  0  0  0  0  0  0  0  0  0  0
  150.1285  153.3846  165.7063 C   0  0  0  0  0  0  0  0  0  0  0  0
  150.0463  154.8237  166.0855 C   0  0  0  0  0  0  0  0  0  0  0  0
  150.6013  155.6377  165.0581 O   0  0  0  0  0  0  0  0  0  0  0  0
  149.0087  153.0757  163.4365 N   0  0  0  0  0  0  0  0  0  0  0  0
  148.2444  152.9132  162.3223 C   0  0  0  0  0  0  0  0  0  0  0  0
  148.7223  152.9239  160.9930 N   0  0  0  0  0  0  0  0  0  0  0  0
  147.8480  152.9378  159.9048 C   0  0  0  0  0  0  0  0  0  0  0  0
  148.4441  153.3373  158.7032 C   0  0  0  0  0  0  0  0  0  0  0  0
  147.7737  153.4261  157.5203 C   0  0  0  0  0  0  0  0  0  0  0  0
  146.4201  153.1067  157.4725 C   0  0  0  0  0  0  0  0  0  0  0  0
  145.5127  153.1824  155.9845 Cl  0  0  0  0  0  0  0  0  0  0  0  0
  145.8150  152.7178  158.6183 C   0  0  0  0  0  0  0  0  0  0  0  0
  144.0987  152.2894  158.6561 Cl  0  0  0  0  0  0  0  0  0  0  0  0
  146.5256  152.6336  159.8210 C   0  0  0  0  0  0  0  0  0  0  0  0
  146.5655  152.7703  162.3375 N   0  0  0  0  0  0  0  0  0  0  0  0
  1  2  1  0
  2  3  2  3
  3  4  1  0
  4  5  2  0
  5  6  3  0
  6  7  1  0
  7  8  1  0
  8  9  1  0
  9 10  1  0
  7 11  1  0
 11 12  1  0
 12 13  1  0
 13 14  1  0
 14 15  2  0
 15 16  1  0
 16 17  2  0
 17 18  1  0
 17 19  1  0
 19 20  1  0
 19 21  2  0
 12 22  2  0
 22  5  1  0
 21 14  1  0
M  CHG  1   5  -1
M  END
$$$$
