
     RDKit          3D

 23 25  0  0  0  0  0  0  0  0999 V2000
    1.7472   -5.3060  -54.6617 N   0  0  0  0  0  0  0  0  0  0  0  0
    1.2040   -5.0399  -55.9702 C   0  0  0  0  0  0  0  0  0  0  0  0
    1.9475   -4.5482  -56.8902 N   0  0  0  0  0  0  0  0  0  0  0  0
    1.2529   -4.3528  -58.1048 C   0  0  0  0  0  0  0  0  0  0  0  0
    1.6671   -3.8511  -59.3388 C   0  0  0  0  0  0  0  0  0  0  0  0
    0.7600   -3.7733  -60.3632 C   0  0  0  0  0  0  0  0  0  0  0  0
   -0.5345   -4.1904  -60.1513 C   0  0  0  0  0  0  0  0  0  0  0  0
   -0.9485   -4.6811  -58.9519 C   0  0  0  0  0  0  0  0  0  0  0  0
   -0.0452   -4.7665  -57.9070 C   0  0  0  0  0  0  0  0  0  0  0  0
   -0.1233   -5.2311  -56.5025 C   0  0  0  0  0  0  0  0  0  0  0  0
   -0.6808   -6.5383  -56.3762 N   0  0  0  0  0  0  0  0  0  0  0  0
   -2.0262   -6.6858  -56.7807 C   0  0  0  0  0  0  0  0  0  0  0  0
   -2.3984   -8.1318  -56.8741 C   0  0  0  0  0  0  0  0  0  0  0  0
   -3.1535   -8.4422  -57.9861 O   0  0  0  0  0  0  0  0  0  0  0  0
   -3.1373   -7.4124  -58.8306 N   0  0  0  0  0  0  0  0  0  0  0  0
   -2.3766   -7.3614  -60.0231 C   0  0  0  0  0  0  0  0  0  0  0  0
   -2.0911   -6.1624  -60.6523 C   0  0  0  0  0  0  0  0  0  0  0  0
   -1.3490   -6.1208  -61.8145 C   0  0  0  0  0  0  0  0  0  0  0  0
   -0.8756   -7.2967  -62.3711 C   0  0  0  0  0  0  0  0  0  0  0  0
    0.0697   -7.2783  -63.8462 Cl  0  0  0  0  0  0  0  0  0  0  0  0
   -1.1456   -8.5044  -61.7648 C   0  0  0  0  0  0  0  0  0  0  0  0
   -0.5409   -9.9776  -62.4801 Cl  0  0  0  0  0  0  0  0  0  0  0  0
   -1.8823   -8.5031  -60.6176 C   0  0  0  0  0  0  0  0  0  0  0  0
  1  2  1  0
  2  3  2  0
  3  4  1  0
  4  5  2  0
  5  6  1  0
  6  7  2  0
  7  8  1  0
  8  9  2  0
  9 10  1  0
 10 11  1  0
 11 12  1  0
 12 13  1  0
 13 14  1  0
 14 15  1  0
 15 16  1  0
 16 17  2  0
 17 18  1  0
 18 19  2  0
 19 20  1  0
 19 21  1  0
 21 22  1  0
 21 23  2  0
 10  2  1  0
 23 16  1  0
  9  4  1  0
M  END
$$$$
