
     RDKit          3D

 19 19  0  0  0  0  0  0  0  0999 V2000
  155.1268  156.3608  142.4470 C   0  0  0  0  0  0  0  0  0  0  0  0
  154.0015  155.8541  142.0106 C   0  0  0  0  0  0  0  0  0  0  0  0
  153.5791  156.1435  140.5986 C   0  0  0  0  0  0  0  0  0  0  0  0
  153.0555  154.9785  140.0549 O   0  0  0  0  0  0  0  0  0  0  0  0
  153.1520  155.0167  142.8620 C   0  0  0  0  0  0  0  0  0  0  0  0
  151.9016  155.2011  142.8580 O   0  0  0  0  0  0  0  0  0  0  0  0
  153.6546  153.9959  143.7034 N   0  0  0  0  0  0  0  0  0  0  0  0
  152.7590  153.2219  144.4769 C   0  0  0  0  0  0  0  0  0  0  0  0
  152.4048  153.6077  145.7558 C   0  0  0  0  0  0  0  0  0  0  0  0
  151.5326  152.8621  146.5205 C   0  0  0  0  0  0  0  0  0  0  0  0
  151.0925  153.3473  148.1180 S   0  0  0  0  0  6  0  0  0  0  0  0
  151.2904  152.2364  149.1250 O   0  0  0  0  0  0  0  0  0  0  0  0
  149.6201  153.7200  148.2085 O   0  0  0  0  0  0  0  0  0  0  0  0
  151.9813  154.7059  148.6743 N   0  0  0  0  0  0  0  0  0  0  0  0
  153.3792  154.4185  148.8782 C   0  0  0  0  0  0  0  0  0  0  0  0
  151.0303  151.7159  145.9525 C   0  0  0  0  0  0  0  0  0  0  0  0
  151.3756  151.3148  144.6706 C   0  0  0  0  0  0  0  0  0  0  0  0
  152.2447  152.0731  143.9304 C   0  0  0  0  0  0  0  0  0  0  0  0
  152.6073  151.6959  142.6460 O   0  0  0  0  0  0  0  0  0  0  0  0
  1  2  2  0
  2  3  1  0
  3  4  1  0
  2  5  1  0
  5  6  2  0
  5  7  1  0
  7  8  1  0
  8  9  2  0
  9 10  1  0
 10 11  1  0
 11 12  2  0
 11 13  2  0
 11 14  1  0
 14 15  1  0
 10 16  2  0
 16 17  1  0
 17 18  2  0
 18 19  1  0
 18  8  1  0
M  END
$$$$
