
     RDKit          3D

 26 28  0  0  0  0  0  0  0  0999 V2000
  152.2030  142.9408  141.5192 N   0  0  0  0  0  4  0  0  0  0  0  0
  151.4614  142.6232  142.7293 C   0  0  0  0  0  0  0  0  0  0  0  0
  151.5371  143.8885  143.6012 C   0  0  0  0  0  0  0  0  0  0  0  0
  150.6349  143.7321  144.6234 O   0  0  0  0  0  0  0  0  0  0  0  0
  150.6623  144.7265  145.5898 C   0  0  0  0  0  0  0  0  0  0  0  0
  149.7198  145.8340  145.2511 C   0  0  0  0  0  0  0  0  0  0  0  0
  149.5827  146.8156  146.1987 O   0  0  0  0  0  0  0  0  0  0  0  0
  150.4258  147.8787  146.1127 C   0  0  0  0  0  0  0  0  0  0  0  0
  150.0542  148.9558  145.1440 C   0  0  0  0  0  0  0  0  0  0  0  0
  150.9549  150.1063  145.1551 N   0  0  0  0  0  0  0  0  0  0  0  0
  152.3374  149.9543  144.9205 C   0  0  0  0  0  0  0  0  0  0  0  0
  153.2498  150.6907  145.6257 N   0  0  0  0  0  0  0  0  0  0  0  0
  154.5688  150.6046  145.4364 C   0  0  0  0  0  0  0  0  0  0  0  0
  155.5057  151.4117  146.2142 C   0  0  0  0  0  0  0  0  0  0  0  0
  156.8360  151.0697  146.2890 C   0  0  0  0  0  0  0  0  0  0  0  0
  157.7391  151.8166  147.0173 C   0  0  0  0  0  0  0  0  0  0  0  0
  157.3399  152.9435  147.7035 C   0  0  0  0  0  0  0  0  0  0  0  0
  156.0103  153.2976  147.6372 C   0  0  0  0  0  0  0  0  0  0  0  0
  155.1294  152.5360  146.9040 C   0  0  0  0  0  0  0  0  0  0  0  0
  154.9974  149.7451  144.5011 N   0  0  0  0  0  0  0  0  0  0  0  0
  154.1662  148.9860  143.7659 C   0  0  0  0  0  0  0  0  0  0  0  0
  154.6937  148.1237  142.8211 C   0  0  0  0  0  0  0  0  0  0  0  0
  153.8239  147.3564  142.0810 C   0  0  0  0  0  0  0  0  0  0  0  0
  152.4625  147.4406  142.2718 C   0  0  0  0  0  0  0  0  0  0  0  0
  151.9291  148.3042  143.2184 C   0  0  0  0  0  0  0  0  0  0  0  0
  152.7806  149.0731  143.9614 C   0  0  0  0  0  0  0  0  0  0  0  0
  1  2  1  0
  2  3  1  0
  3  4  1  0
  4  5  1  0
  5  6  1  0
  6  7  1  0
  7  8  1  0
  8  9  1  0
  9 10  1  0
 10 11  1  0
 11 12  2  0
 12 13  1  0
 13 14  1  0
 14 15  2  0
 15 16  1  0
 16 17  2  0
 17 18  1  0
 18 19  2  0
 13 20  2  0
 20 21  1  0
 21 22  2  0
 22 23  1  0
 23 24  2  0
 24 25  1  0
 25 26  2  0
 26 11  1  0
 19 14  1  0
 26 21  1  0
M  CHG  1   1   1
M  END
$$$$
