
     RDKit          3D

 28 30  0  0  0  0  0  0  0  0999 V2000
  -27.7750   52.5671    5.9350 C   0  0  0  0  0  0  0  0  0  0  0  0
  -27.6239   53.2855    4.7063 O   0  0  0  0  0  0  0  0  0  0  0  0
  -28.7224   53.3774    3.8732 C   0  0  0  0  0  0  0  0  0  0  0  0
  -29.8810   52.6648    4.1614 C   0  0  0  0  0  0  0  0  0  0  0  0
  -30.9627   52.7790    3.3069 C   0  0  0  0  0  0  0  0  0  0  0  0
  -30.9524   53.5799    2.1592 C   0  0  0  0  0  0  0  0  0  0  0  0
  -32.1607   53.6307    1.3160 C   0  0  0  0  0  0  0  0  0  0  0  0
  -33.3584   54.1468    2.0481 C   0  0  2  0  0  0  0  0  0  0  0  0
  -34.2573   53.0516    2.5320 C   0  0  0  0  0  0  0  0  0  0  0  0
  -34.8789   52.5988    1.3998 O   0  0  0  0  0  0  0  0  0  0  0  0
  -35.0305   53.6628    0.5189 C   0  0  2  0  0  0  0  0  0  0  0  0
  -34.4419   53.3021   -0.7195 O   0  0  0  0  0  0  0  0  0  0  0  0
  -34.2835   54.8382    1.0330 C   0  0  1  0  0  0  0  0  0  0  0  0
  -35.1625   55.8233    1.7535 C   0  0  0  0  0  0  0  0  0  0  0  0
  -34.6397   57.1884    1.6348 C   0  0  0  0  0  0  0  0  0  0  0  0
  -35.5404   58.1271    2.1466 C   0  0  0  0  0  0  0  0  0  0  0  0
  -35.2618   59.4907    2.1342 C   0  0  0  0  0  0  0  0  0  0  0  0
  -34.0756   59.9800    1.6123 C   0  0  0  0  0  0  0  0  0  0  0  0
  -33.7305   61.3052    1.5649 O   0  0  0  0  0  0  0  0  0  0  0  0
  -34.5538   62.3020    2.0895 C   0  0  0  0  0  0  0  0  0  0  0  0
  -33.2036   59.0297    1.1129 C   0  0  0  0  0  0  0  0  0  0  0  0
  -32.0147   59.4550    0.5841 O   0  0  0  0  0  0  0  0  0  0  0  0
  -30.9857   58.6226    0.1258 C   0  0  0  0  0  0  0  0  0  0  0  0
  -33.4588   57.6740    1.1148 C   0  0  0  0  0  0  0  0  0  0  0  0
  -29.7775   54.2854    1.8917 C   0  0  0  0  0  0  0  0  0  0  0  0
  -28.6935   54.1723    2.7461 C   0  0  0  0  0  0  0  0  0  0  0  0
  -27.5245   54.8598    2.5008 O   0  0  0  0  0  0  0  0  0  0  0  0
  -27.3266   55.7920    1.4677 C   0  0  0  0  0  0  0  0  0  0  0  0
  1  2  1  0
  2  3  1  0
  3  4  2  0
  4  5  1  0
  5  6  2  0
  6  7  1  0
  8  7  1  6
  8  9  1  0
  9 10  1  0
 10 11  1  0
 11 12  1  6
 11 13  1  0
 13 14  1  1
 14 15  1  0
 15 16  2  0
 16 17  1  0
 17 18  2  0
 18 19  1  0
 19 20  1  0
 18 21  1  0
 21 22  1  0
 22 23  1  0
 21 24  2  0
  6 25  1  0
 25 26  2  0
 26 27  1  0
 27 28  1  0
 26  3  1  0
 13  8  1  0
 24 15  1  0
M  END
$$$$
