
     RDKit          3D

 28 30  0  0  0  0  0  0  0  0999 V2000
  -26.1596   53.3179    4.6709 C   0  0  0  0  0  0  0  0  0  0  0  0
  -26.4211   54.7165    4.5165 O   0  0  0  0  0  0  0  0  0  0  0  0
  -27.3708   55.0969    3.5878 C   0  0  0  0  0  0  0  0  0  0  0  0
  -28.0735   54.1347    2.8711 C   0  0  0  0  0  0  0  0  0  0  0  0
  -29.0175   54.5490    1.9488 C   0  0  0  0  0  0  0  0  0  0  0  0
  -29.3048   55.8955    1.6973 C   0  0  0  0  0  0  0  0  0  0  0  0
  -30.3309   56.2286    0.6925 C   0  0  0  0  0  0  0  0  0  0  0  0
  -31.2121   57.3605    1.1157 C   0  0  2  0  0  0  0  0  0  0  0  0
  -32.3535   56.9150    1.9761 C   0  0  0  0  0  0  0  0  0  0  0  0
  -33.2091   56.2926    1.1079 O   0  0  0  0  0  0  0  0  0  0  0  0
  -33.1105   56.9091   -0.1336 C   0  0  2  0  0  0  0  0  0  0  0  0
  -32.8096   55.9166   -1.1003 O   0  0  0  0  0  0  0  0  0  0  0  0
  -31.9754   57.8657   -0.1198 C   0  0  1  0  0  0  0  0  0  0  0  0
  -32.4083   59.2874    0.1115 C   0  0  0  0  0  0  0  0  0  0  0  0
  -31.4949   60.2336   -0.5376 C   0  0  0  0  0  0  0  0  0  0  0  0
  -32.0087   61.5337   -0.5206 C   0  0  0  0  0  0  0  0  0  0  0  0
  -31.3179   62.6007   -1.0871 C   0  0  0  0  0  0  0  0  0  0  0  0
  -30.0862   62.4216   -1.6951 C   0  0  0  0  0  0  0  0  0  0  0  0
  -29.3474   63.4203   -2.2733 O   0  0  0  0  0  0  0  0  0  0  0  0
  -29.7755   64.7481   -2.2771 C   0  0  0  0  0  0  0  0  0  0  0  0
  -29.6020   61.1260   -1.6977 C   0  0  0  0  0  0  0  0  0  0  0  0
  -28.3885   60.8885   -2.2850 O   0  0  0  0  0  0  0  0  0  0  0  0
  -27.7011   59.6684   -2.2640 C   0  0  0  0  0  0  0  0  0  0  0  0
  -30.2693   60.0537   -1.1427 C   0  0  0  0  0  0  0  0  0  0  0  0
  -28.5859   56.8423    2.4298 C   0  0  0  0  0  0  0  0  0  0  0  0
  -27.6404   56.4294    3.3535 C   0  0  0  0  0  0  0  0  0  0  0  0
  -26.9198   57.3471    4.0870 O   0  0  0  0  0  0  0  0  0  0  0  0
  -27.0723   58.7429    4.0251 C   0  0  0  0  0  0  0  0  0  0  0  0
  1  2  1  0
  2  3  1  0
  3  4  2  0
  4  5  1  0
  5  6  2  0
  6  7  1  0
  8  7  1  6
  8  9  1  0
  9 10  1  0
 10 11  1  0
 11 12  1  6
 11 13  1  0
 13 14  1  1
 14 15  1  0
 15 16  2  0
 16 17  1  0
 17 18  2  0
 18 19  1  0
 19 20  1  0
 18 21  1  0
 21 22  1  0
 22 23  1  0
 21 24  2  0
  6 25  1  0
 25 26  2  0
 26 27  1  0
 27 28  1  0
 26  3  1  0
 13  8  1  0
 24 15  1  0
M  END
$$$$
