
     RDKit          3D

 11 11  0  0  0  0  0  0  0  0999 V2000
   -0.6465   -8.6080  -63.2656 C   0  0  0  0  0  0  0  0  0  0  0  0
   -0.2348   -7.4864  -62.4285 C   0  0  0  0  0  0  0  0  0  0  0  0
   -0.7672   -7.0187  -61.3646 C   0  0  0  0  0  0  0  0  0  0  0  0
   -0.9387   -8.1041  -60.2499 C   0  0  0  0  0  0  0  0  0  0  0  0
   -1.1292   -5.6932  -60.9446 C   0  0  0  0  0  0  0  0  0  0  0  0
   -2.2026   -5.0625  -61.6178 C   0  0  0  0  0  0  0  0  0  0  0  0
   -2.7195   -3.8456  -61.3029 C   0  0  0  0  0  0  0  0  0  0  0  0
   -2.1441   -3.1814  -60.2407 C   0  0  0  0  0  0  0  0  0  0  0  0
   -1.1031   -3.7616  -59.5633 C   0  0  0  0  0  0  0  0  0  0  0  0
   -0.5786   -5.0261  -59.9009 C   0  0  0  0  0  0  0  0  0  0  0  0
    0.4510   -5.5443  -59.0491 N   0  0  0  0  0  0  0  0  0  0  0  0
  1  2  1  0
  2  3  2  3
  3  4  1  0
  3  5  1  0
  5  6  2  0
  6  7  1  0
  7  8  2  0
  8  9  1  0
  9 10  2  0
 10 11  1  0
 10  5  1  0
M  END
$$$$
