
     RDKit          3D

 21 23  0  0  0  0  0  0  0  0999 V2000
   41.9938   48.3169   25.0476 C   0  0  0  0  0  0  0  0  0  0  0  0
   40.6519   48.2345   25.7563 C   0  0  0  0  0  0  0  0  0  0  0  0
   39.4613   48.1789   24.6811 B   0  0  0  0  0  0  0  0  0  0  0  0
   39.8462   47.7591   23.2806 N   0  0  0  0  0  0  0  0  0  0  0  0
   40.8638   46.7337   23.2363 O   0  0  0  0  0  0  0  0  0  0  0  0
   41.4892   46.6825   21.9693 C   0  0  0  0  0  0  0  0  0  0  0  0
   41.2260   47.7149   21.2144 N   0  0  0  0  0  0  0  0  0  0  0  0
   41.6767   47.9052   20.0024 C   0  0  0  0  0  0  0  0  0  0  0  0
   42.4547   47.0113   19.4735 N   0  0  0  0  0  0  0  0  0  0  0  0
   42.8050   45.8856   20.1620 C   0  0  0  0  0  0  0  0  0  0  0  0
   43.6156   44.9109   19.6583 C   0  0  0  0  0  0  0  0  0  0  0  0
   43.9247   43.7919   20.4174 C   0  0  0  0  0  0  0  0  0  0  0  0
   43.4035   43.6790   21.6823 C   0  0  0  0  0  0  0  0  0  0  0  0
   42.5786   44.6349   22.2408 C   0  0  0  0  0  0  0  0  0  0  0  0
   42.2876   45.7371   21.4645 C   0  0  0  0  0  0  0  0  0  0  0  0
   41.1519   49.1709   19.5420 N   0  0  0  0  0  0  0  0  0  0  0  0
   40.4835   49.9461   20.6375 C   0  0  0  0  0  0  0  0  0  0  0  0
   39.3832   49.1196   21.1890 C   0  0  0  0  0  0  0  0  0  0  0  0
   37.9330   49.3283   20.0565 Cl  0  0  0  0  0  0  0  0  0  0  0  0
   39.1832   48.3199   22.1777 C   0  0  0  0  0  0  0  0  0  0  0  0
   37.3588   47.8218   22.2104 Cl  0  0  0  0  0  0  0  0  0  0  0  0
  1  2  1  0
  2  3  1  0
  3  4  1  0
  4  5  1  0
  5  6  1  0
  6  7  2  0
  7  8  1  0
  8  9  2  0
  9 10  1  0
 10 11  2  0
 11 12  1  0
 12 13  2  0
 13 14  1  0
 14 15  2  0
  8 16  1  0
 16 17  1  0
 17 18  1  0
 18 19  1  0
 18 20  2  0
 20 21  1  0
 20  4  1  0
 15  6  1  0
 15 10  1  0
M  END
$$$$
