
     RDKit          3D

 18 19  0  0  0  0  0  0  0  0999 V2000
   14.0343   40.8501   32.1471 C   0  0  0  0  0  0  0  0  0  0  0  0
   14.6218   42.1720   31.6895 C   0  0  0  0  0  0  0  0  0  0  0  0
   14.9142   42.1461   30.1990 C   0  0  0  0  0  0  0  0  0  0  0  0
   16.4425   42.1670   30.0577 C   0  0  0  0  0  0  0  0  0  0  0  0
   16.9438   43.5598   30.1935 C   0  0  0  0  0  0  0  0  0  0  0  0
   16.9284   44.5034   29.1954 C   0  0  0  0  0  0  0  0  0  0  0  0
   16.4435   44.1328   27.9499 O   0  0  0  0  0  1  0  0  0  0  0  0
   17.3666   45.7672   29.3916 N   0  0  0  0  0  0  0  0  0  0  0  0
   17.8501   46.1958   30.5755 C   0  0  0  0  0  0  0  0  0  0  0  0
   18.2867   47.4802   30.7980 C   0  0  0  0  0  0  0  0  0  0  0  0
   18.7630   47.8681   32.0499 C   0  0  0  0  0  0  0  0  0  0  0  0
   18.8004   46.9642   33.0778 C   0  0  0  0  0  0  0  0  0  0  0  0
   19.2629   47.2925   34.3467 O   0  0  0  0  0  0  0  0  0  0  0  0
   19.1423   48.5374   34.9480 C   0  0  0  0  0  0  0  0  0  0  0  0
   18.3594   45.6539   32.8649 C   0  0  0  0  0  0  0  0  0  0  0  0
   17.8898   45.2796   31.6215 C   0  0  0  0  0  0  0  0  0  0  0  0
   17.4360   43.9753   31.4124 C   0  0  0  0  0  0  0  0  0  0  0  0
   17.4733   43.1422   32.3656 O   0  0  0  0  0  0  0  0  0  0  0  0
  1  2  1  0
  2  3  1  0
  3  4  1  0
  4  5  1  0
  5  6  2  0
  6  7  1  0
  6  8  1  0
  8  9  1  0
  9 10  2  0
 10 11  1  0
 11 12  2  0
 12 13  1  0
 13 14  1  0
 12 15  1  0
 15 16  2  0
 16 17  1  0
 17 18  2  0
 17  5  1  0
 16  9  1  0
M  CHG  1   7  -1
M  END
$$$$
