
     RDKit          3D

 18 19  0  0  0  0  0  0  0  0999 V2000
   43.0887   27.0802   22.9818 C   0  0  0  0  0  0  0  0  0  0  0  0
   43.8241   27.7878   21.8592 C   0  0  0  0  0  0  0  0  0  0  0  0
   43.1984   29.1423   21.5730 C   0  0  0  0  0  0  0  0  0  0  0  0
   42.4614   29.0038   20.2336 C   0  0  0  0  0  0  0  0  0  0  0  0
   43.2871   29.5801   19.1402 C   0  0  0  0  0  0  0  0  0  0  0  0
   43.8663   28.8573   18.1258 C   0  0  0  0  0  0  0  0  0  0  0  0
   43.7066   27.4795   18.1282 O   0  0  0  0  0  1  0  0  0  0  0  0
   44.5777   29.4446   17.1376 N   0  0  0  0  0  0  0  0  0  0  0  0
   44.7727   30.7776   17.0727 C   0  0  0  0  0  0  0  0  0  0  0  0
   45.4807   31.3941   16.0684 C   0  0  0  0  0  0  0  0  0  0  0  0
   45.6358   32.7798   16.0478 C   0  0  0  0  0  0  0  0  0  0  0  0
   45.0790   33.5452   17.0372 C   0  0  0  0  0  0  0  0  0  0  0  0
   45.1985   34.9296   17.0692 O   0  0  0  0  0  0  0  0  0  0  0  0
   44.1773   35.8167   17.3794 C   0  0  0  0  0  0  0  0  0  0  0  0
   44.3563   32.9307   18.0653 C   0  0  0  0  0  0  0  0  0  0  0  0
   44.2087   31.5578   18.0768 C   0  0  0  0  0  0  0  0  0  0  0  0
   43.4751   30.9450   19.0952 C   0  0  0  0  0  0  0  0  0  0  0  0
   42.9627   31.6567   20.0089 O   0  0  0  0  0  0  0  0  0  0  0  0
  1  2  1  0
  2  3  1  0
  3  4  1  0
  4  5  1  0
  5  6  2  0
  6  7  1  0
  6  8  1  0
  8  9  1  0
  9 10  2  0
 10 11  1  0
 11 12  2  0
 12 13  1  0
 13 14  1  0
 12 15  1  0
 15 16  2  0
 16 17  1  0
 17 18  2  0
 17  5  1  0
 16  9  1  0
M  CHG  1   7  -1
M  END
$$$$
