
     RDKit          3D

 22 23  0  0  0  0  0  0  0  0999 V2000
  151.2755  146.1014  144.3522 C   0  0  0  0  0  0  0  0  0  0  0  0
  151.3162  146.6663  145.7394 C   0  0  0  0  0  0  0  0  0  0  0  0
  150.8495  148.0650  145.8931 C   0  0  1  0  0  0  0  0  0  0  0  0
  150.1167  148.4272  147.1243 C   0  0  0  0  0  0  0  0  0  0  0  0
  148.6624  148.7063  147.0315 C   0  0  0  0  0  0  0  0  0  0  0  0
  148.5674  150.1185  146.8279 O   0  0  0  0  0  0  0  0  0  0  0  0
  152.0250  148.9641  145.8646 N   0  0  0  0  0  4  0  0  0  0  0  0
  151.7525  150.1549  145.1044 C   0  0  1  0  0  0  0  0  0  0  0  0
  152.3919  151.3518  145.7531 C   0  0  0  0  0  0  0  0  0  0  0  0
  153.7547  151.3968  145.9545 C   0  0  0  0  0  0  0  0  0  0  0  0
  154.3600  152.4976  146.5534 C   0  0  0  0  0  0  0  0  0  0  0  0
  153.5982  153.5640  146.9554 C   0  0  0  0  0  0  0  0  0  0  0  0
  154.2233  154.6320  147.5414 F   0  0  0  0  0  0  0  0  0  0  0  0
  152.2418  153.5395  146.7645 C   0  0  0  0  0  0  0  0  0  0  0  0
  151.6492  152.4382  146.1670 C   0  0  0  0  0  0  0  0  0  0  0  0
  152.1547  150.0890  143.7065 C   0  0  0  0  0  0  0  0  0  0  0  0
  151.4926  150.6988  142.6639 C   0  0  0  0  0  0  0  0  0  0  0  0
  151.9165  150.6034  141.3575 C   0  0  0  0  0  0  0  0  0  0  0  0
  153.0377  149.8783  141.0651 C   0  0  0  0  0  0  0  0  0  0  0  0
  153.6344  149.7135  139.4296 Cl  0  0  0  0  0  0  0  0  0  0  0  0
  153.7438  149.2431  142.0754 C   0  0  0  0  0  0  0  0  0  0  0  0
  153.2858  149.3655  143.3579 C   0  0  0  0  0  0  0  0  0  0  0  0
  1  2  1  0
  3  2  1  1
  3  4  1  0
  4  5  1  0
  5  6  1  0
  3  7  1  0
  8  7  1  1
  8  9  1  0
  9 10  2  0
 10 11  1  0
 11 12  2  0
 12 13  1  0
 12 14  1  0
 14 15  2  0
  8 16  1  0
 16 17  2  0
 17 18  1  0
 18 19  2  0
 19 20  1  0
 19 21  1  0
 21 22  2  0
 15  9  1  0
 22 16  1  0
M  CHG  1   7   1
M  END
$$$$
