
     RDKit          3D

 28 31  0  0  0  0  0  0  0  0999 V2000
   -9.6179   -5.5328  -55.8473 C   0  0  0  0  0  0  0  0  0  0  0  0
   -8.3709   -5.5570  -56.6411 C   0  0  0  0  0  0  0  0  0  0  0  0
   -7.2353   -4.8672  -56.2620 C   0  0  0  0  0  0  0  0  0  0  0  0
   -6.0788   -4.8996  -57.0105 C   0  0  0  0  0  0  0  0  0  0  0  0
   -6.0505   -5.6369  -58.1662 C   0  0  0  0  0  0  0  0  0  0  0  0
   -4.8297   -5.6999  -59.0024 C   0  0  0  0  0  0  0  0  0  0  0  0
   -3.7337   -5.3404  -58.5017 O   0  0  0  0  0  0  0  0  0  0  0  0
   -4.8165   -6.1430  -60.3415 N   0  0  0  0  0  0  0  0  0  0  0  0
   -3.6063   -6.2261  -61.1013 C   0  0  0  0  0  0  0  0  0  0  0  0
   -2.6434   -5.2165  -61.2775 C   0  0  0  0  0  0  0  0  0  0  0  0
   -1.7070   -5.7577  -62.0538 C   0  0  0  0  0  0  0  0  0  0  0  0
   -2.0966   -7.0474  -62.3325 N   0  0  0  0  0  0  0  0  0  0  0  0
   -3.2282   -7.3298  -61.7664 N   0  0  0  0  0  0  0  0  0  0  0  0
   -3.9196   -8.5831  -61.8522 C   0  0  0  0  0  0  0  0  0  0  0  0
   -3.3166   -9.6093  -62.5399 C   0  0  0  0  0  0  0  0  0  0  0  0
   -3.9195  -10.8402  -62.6638 C   0  0  0  0  0  0  0  0  0  0  0  0
   -5.1618  -11.0438  -62.0805 C   0  0  0  0  0  0  0  0  0  0  0  0
   -5.8828  -12.6202  -62.2660 Cl  0  0  0  0  0  0  0  0  0  0  0  0
   -5.7443  -10.0131  -61.4021 C   0  0  0  0  0  0  0  0  0  0  0  0
   -5.1374   -8.7849  -61.2812 C   0  0  0  0  0  0  0  0  0  0  0  0
   -0.5505   -4.9364  -62.4222 C   0  0  0  0  0  0  0  0  0  0  0  0
   -0.8120   -3.4396  -61.4382 S   0  0  0  0  0  0  0  0  0  0  0  0
   -2.4714   -3.8379  -60.8341 C   0  0  0  0  0  0  0  0  0  0  0  0
   -7.1766   -6.3231  -58.5458 C   0  0  0  0  0  0  0  0  0  0  0  0
   -8.3218   -6.2906  -57.8039 C   0  0  0  0  0  0  0  0  0  0  0  0
   -9.4258   -7.0402  -58.2912 N   0  0  0  0  0  4  0  0  0  0  0  0
  -10.5699   -6.5149  -58.3686 O   0  0  0  0  0  0  0  0  0  0  0  0
   -9.2101   -8.3393  -58.6714 O   0  0  0  0  0  1  0  0  0  0  0  0
  1  2  1  0
  2  3  2  0
  3  4  1  0
  4  5  2  0
  5  6  1  0
  6  7  2  0
  6  8  1  0
  8  9  1  0
  9 10  2  0
 10 11  1  0
 11 12  2  0
 12 13  1  0
 13 14  1  0
 14 15  2  0
 15 16  1  0
 16 17  2  0
 17 18  1  0
 17 19  1  0
 19 20  2  0
 11 21  1  0
 21 22  1  0
 22 23  1  0
  5 24  1  0
 24 25  2  0
 25 26  1  0
 26 27  2  0
 26 28  1  0
 25  2  1  0
 13  9  1  0
 20 14  1  0
 23 10  1  0
M  CHG  2  26   1  28  -1
M  END
$$$$
