
     RDKit          3D

 19 20  0  0  0  0  0  0  0  0999 V2000
   16.9857  -23.9398  -18.2114 C   0  0  0  0  0  0  0  0  0  0  0  0
   17.2688  -24.5947  -19.5060 C   0  0  0  0  0  0  0  0  0  0  0  0
   16.9184  -26.0902  -19.2657 C   0  0  0  0  0  0  0  0  0  0  0  0
   15.3841  -25.9457  -19.2463 C   0  0  0  0  0  0  0  0  0  0  0  0
   15.2177  -25.0159  -20.4031 C   0  0  0  0  0  0  0  0  0  0  0  0
   16.2824  -24.2421  -20.5665 C   0  0  0  0  0  0  0  0  0  0  0  0
   16.5511  -23.1957  -21.6017 C   0  0  0  0  0  0  0  0  0  0  0  0
   15.9561  -23.6053  -22.9446 C   0  0  0  0  0  0  0  0  0  0  0  0
   14.6024  -23.3278  -23.0343 O   0  0  0  0  0  0  0  0  0  0  0  0
   16.0710  -21.8827  -21.2452 N   0  0  0  0  0  0  0  0  0  0  0  0
   16.3591  -21.1476  -20.0849 C   0  0  0  0  0  0  0  0  0  0  0  0
   17.4691  -20.7975  -19.6851 N   0  0  0  0  0  0  0  0  0  0  0  0
   18.8148  -20.8927  -20.0527 C   0  0  0  0  0  0  0  0  0  0  0  0
   19.6678  -20.8751  -18.8682 N   0  0  0  0  0  0  0  0  0  0  0  0
   20.0493  -21.9780  -18.1054 C   0  0  0  0  0  0  0  0  0  0  0  0
   20.0698  -23.2584  -18.4035 C   0  0  0  0  0  0  0  0  0  0  0  0
   19.7275  -24.0061  -19.5628 C   0  0  0  0  0  0  0  0  0  0  0  0
   18.6347  -24.5446  -20.0255 C   0  0  0  0  0  0  0  0  0  0  0  0
   18.7136  -25.4138  -21.6033 Cl  0  0  0  0  0  0  0  0  0  0  0  0
  1  2  1  0
  2  3  1  0
  3  4  1  0
  4  5  1  0
  5  6  2  0
  6  7  1  0
  7  8  1  0
  8  9  1  0
  7 10  1  0
 10 11  1  0
 11 12  2  0
 12 13  1  0
 13 14  1  0
 14 15  1  0
 15 16  2  0
 16 17  1  0
 17 18  2  0
 18 19  1  0
  6  2  1  0
 18  2  1  0
M  END
$$$$
