
     RDKit          3D

 21 23  0  0  0  0  0  0  0  0999 V2000
    0.7756   59.6612   13.7988 C   0  0  0  0  0  0  0  0  0  0  0  0
    0.8287   58.6734   12.6806 C   0  0  0  0  0  0  0  0  0  0  0  0
    1.4373   58.9205   11.6100 O   0  0  0  0  0  0  0  0  0  0  0  0
    0.1430   57.3907   12.8678 C   0  0  0  0  0  0  0  0  0  0  0  0
   -1.1761   57.2255   12.5200 C   0  0  0  0  0  0  0  0  0  0  0  0
   -1.8322   56.0286   12.6898 C   0  0  0  0  0  0  0  0  0  0  0  0
   -1.1906   54.9004   13.2307 C   0  0  0  0  0  0  0  0  0  0  0  0
   -1.9305   53.7036   13.3671 N   0  0  0  0  0  0  0  0  0  0  0  0
   -1.7762   52.7958   14.4232 C   0  0  0  0  0  0  0  0  0  0  0  0
   -2.5152   51.7483   14.7027 N   0  0  0  0  0  0  0  0  0  0  0  0
   -2.2686   50.9474   15.7453 C   0  0  0  0  0  0  0  0  0  0  0  0
   -3.0964   49.8277   16.0066 N   0  0  0  0  0  0  0  0  0  0  0  0
   -1.1957   51.1902   16.6016 C   0  0  0  0  0  0  0  0  0  0  0  0
   -0.9112   50.3915   17.6807 C   0  0  0  0  0  0  0  0  0  0  0  0
    0.1754   50.6668   18.5188 C   0  0  0  0  0  0  0  0  0  0  0  0
    0.9596   51.7644   18.2362 C   0  0  0  0  0  0  0  0  0  0  0  0
    0.6647   52.5595   17.1498 C   0  0  0  0  0  0  0  0  0  0  0  0
   -0.4177   52.2845   16.3157 C   0  0  0  0  0  0  0  0  0  0  0  0
   -0.7134   53.0466   15.2612 N   0  0  0  0  0  0  0  0  0  0  0  0
    0.1290   55.0625   13.5794 C   0  0  0  0  0  0  0  0  0  0  0  0
    0.7771   56.2945   13.3965 C   0  0  0  0  0  0  0  0  0  0  0  0
  1  2  1  0
  2  3  2  0
  2  4  1  0
  4  5  2  0
  5  6  1  0
  6  7  2  0
  7  8  1  0
  8  9  1  0
  9 10  2  0
 10 11  1  0
 11 12  1  0
 11 13  2  0
 13 14  1  0
 14 15  2  0
 15 16  1  0
 16 17  2  0
 17 18  1  0
 18 19  2  0
  7 20  1  0
 20 21  2  0
 21  4  1  0
 19  9  1  0
 18 13  1  0
M  END
$$$$
