
     RDKit          3D

 22 24  0  0  0  0  0  0  0  0999 V2000
  169.1653  144.9592  153.0423 C   0  0  0  0  0  0  0  0  0  0  0  0
  170.1527  143.8347  153.1217 C   0  0  0  0  0  0  0  0  0  0  0  0
  170.0103  142.7429  151.7236 Cl  0  0  0  0  0  0  0  0  0  0  0  0
  171.5206  144.4236  153.0714 C   0  0  0  0  0  0  0  0  0  0  0  0
  172.0791  145.2395  152.0491 N   0  0  0  0  0  0  0  0  0  0  0  0
  172.2052  144.0875  154.1440 C   0  0  0  0  0  0  0  0  0  0  0  0
  171.3286  143.2623  154.9559 C   0  0  0  0  0  0  0  0  0  0  0  0
  170.1500  143.1086  154.3836 C   0  0  0  0  0  0  0  0  0  0  0  0
  169.0715  142.3098  155.0055 C   0  0  0  0  0  0  0  0  0  0  0  0
  169.0194  142.0690  156.3107 N   0  0  0  0  0  0  0  0  0  0  0  0
  168.0509  141.3432  156.9210 C   0  0  0  0  0  0  0  0  0  0  0  0
  168.0798  141.1232  158.3153 N   0  0  0  0  0  0  0  0  0  0  0  0
  168.8868  141.8921  159.2368 C   0  0  0  0  0  0  0  0  0  0  0  0
  170.3514  141.6828  159.1433 C   0  0  0  0  0  0  0  0  0  0  0  0
  170.9872  141.4212  160.3319 O   0  0  0  0  0  0  0  0  0  0  0  0
  167.0454  140.8109  156.1606 C   0  0  0  0  0  0  0  0  0  0  0  0
  166.0053  140.0567  156.6602 C   0  0  0  0  0  0  0  0  0  0  0  0
  165.0019  139.5310  155.8687 C   0  0  0  0  0  0  0  0  0  0  0  0
  165.0381  139.7692  154.5145 C   0  0  0  0  0  0  0  0  0  0  0  0
  166.0813  140.5268  154.0059 C   0  0  0  0  0  0  0  0  0  0  0  0
  167.0827  141.0529  154.7873 C   0  0  0  0  0  0  0  0  0  0  0  0
  168.0883  141.7906  154.2532 N   0  0  0  0  0  0  0  0  0  0  0  0
  1  2  1  0
  2  3  1  0
  2  4  1  0
  4  5  1  0
  4  6  2  0
  6  7  1  0
  7  8  2  0
  8  9  1  0
  9 10  2  0
 10 11  1  0
 11 12  1  0
 12 13  1  0
 13 14  1  0
 14 15  1  0
 11 16  2  0
 16 17  1  0
 17 18  2  0
 18 19  1  0
 19 20  2  0
 20 21  1  0
 21 22  2  0
  8  2  1  0
 22  9  1  0
 21 16  1  0
M  END
$$$$
