
     RDKit          3D

 17 17  0  0  0  0  0  0  0  0999 V2000
  129.2859  142.8032  143.0284 C   0  0  0  0  0  0  0  0  0  0  0  0
  127.9111  142.6767  143.6774 C   0  0  0  0  0  0  0  0  0  0  0  0
  127.6731  141.0495  144.3384 S   0  0  0  0  0  6  0  0  0  0  0  0
  126.3088  140.9402  144.9944 O   0  0  0  0  0  0  0  0  0  0  0  0
  128.6573  140.8191  145.4616 O   0  0  0  0  0  0  0  0  0  0  0  0
  127.8231  139.8834  143.1101 N   0  0  0  0  0  0  0  0  0  0  0  0
  127.7395  138.4926  143.2041 C   0  0  0  0  0  0  0  0  0  0  0  0
  127.3623  137.8116  144.3330 C   0  0  0  0  0  0  0  0  0  0  0  0
  127.3129  136.4144  144.3960 C   0  0  0  0  0  0  0  0  0  0  0  0
  126.9032  135.7356  145.6235 C   0  0  0  0  0  0  0  0  0  0  0  0
  126.7122  136.3848  146.6638 O   0  0  0  0  0  0  0  0  0  0  0  0
  126.7177  134.3681  145.6649 O   0  0  0  0  0  0  0  0  0  0  0  0
  127.4164  133.4942  146.5188 C   0  0  0  0  0  0  0  0  0  0  0  0
  127.6568  135.6793  143.2814 C   0  0  0  0  0  0  0  0  0  0  0  0
  128.0351  136.3737  142.1520 C   0  0  0  0  0  0  0  0  0  0  0  0
  128.0893  137.7408  142.0712 C   0  0  0  0  0  0  0  0  0  0  0  0
  128.4843  138.3415  140.8841 O   0  0  0  0  0  0  0  0  0  0  0  0
  1  2  1  0
  2  3  1  0
  3  4  2  0
  3  5  2  0
  3  6  1  0
  6  7  1  0
  7  8  2  0
  8  9  1  0
  9 10  1  0
 10 11  2  0
 10 12  1  0
 12 13  1  0
  9 14  2  0
 14 15  1  0
 15 16  2  0
 16 17  1  0
 16  7  1  0
M  END
$$$$
