
     RDKit          3D

 17 17  0  0  0  0  0  0  0  0999 V2000
  120.8235  147.6509  144.7703 C   0  0  0  0  0  0  0  0  0  0  0  0
  120.8316  148.0400  146.2453 C   0  0  0  0  0  0  0  0  0  0  0  0
  119.6470  149.3186  146.5667 S   0  0  0  0  0  6  0  0  0  0  0  0
  120.3499  150.6427  146.8031 O   0  0  0  0  0  0  0  0  0  0  0  0
  118.9373  149.0244  147.8680 O   0  0  0  0  0  0  0  0  0  0  0  0
  118.5609  149.4604  145.2662 N   0  0  0  0  0  0  0  0  0  0  0  0
  117.3220  148.8421  145.0848 C   0  0  0  0  0  0  0  0  0  0  0  0
  116.5815  148.2763  146.0908 C   0  0  0  0  0  0  0  0  0  0  0  0
  115.3533  147.6441  145.8662 C   0  0  0  0  0  0  0  0  0  0  0  0
  114.6016  147.0567  146.9732 C   0  0  0  0  0  0  0  0  0  0  0  0
  113.4006  146.7760  146.8350 O   0  0  0  0  0  0  0  0  0  0  0  0
  115.1955  146.7986  148.1925 O   0  0  0  0  0  0  0  0  0  0  0  0
  115.8980  145.6193  148.5034 C   0  0  0  0  0  0  0  0  0  0  0  0
  114.8557  147.5802  144.5820 C   0  0  0  0  0  0  0  0  0  0  0  0
  115.6083  148.1516  143.5780 C   0  0  0  0  0  0  0  0  0  0  0  0
  116.8123  148.7749  143.7784 C   0  0  0  0  0  0  0  0  0  0  0  0
  117.4907  149.3183  142.6964 O   0  0  0  0  0  0  0  0  0  0  0  0
  1  2  1  0
  2  3  1  0
  3  4  2  0
  3  5  2  0
  3  6  1  0
  6  7  1  0
  7  8  2  0
  8  9  1  0
  9 10  1  0
 10 11  2  0
 10 12  1  0
 12 13  1  0
  9 14  2  0
 14 15  1  0
 15 16  2  0
 16 17  1  0
 16  7  1  0
M  END
$$$$
