
     RDKit          3D

 26 28  0  0  0  0  0  0  0  0999 V2000
  157.3712  149.1682  146.1756 C   0  0  0  0  0  0  0  0  0  0  0  0
  156.5607  149.8010  147.1417 O   0  0  0  0  0  0  0  0  0  0  0  0
  155.8015  150.9153  146.8867 C   0  0  0  0  0  0  0  0  0  0  0  0
  155.3827  151.3638  145.6460 C   0  0  0  0  0  0  0  0  0  0  0  0
  154.6187  152.4993  145.4837 C   0  0  0  0  0  0  0  0  0  0  0  0
  154.2983  152.7718  144.0659 C   0  0  2  0  0  0  0  0  0  0  0  0
  153.2185  153.8162  144.0220 C   0  0  0  0  0  0  0  0  0  0  0  0
  152.5033  153.8434  142.7227 C   0  0  0  0  0  0  0  0  0  0  0  0
  151.9243  154.8939  142.3252 O   0  0  0  0  0  0  0  0  0  0  0  0
  152.5056  152.6021  141.9375 C   0  0  0  0  0  0  0  0  0  0  0  0
  151.7608  152.5615  140.7608 C   0  0  0  0  0  0  0  0  0  0  0  0
  151.7461  151.3931  139.9954 C   0  0  0  0  0  0  0  0  0  0  0  0
  152.4582  150.2985  140.4001 C   0  0  0  0  0  0  0  0  0  0  0  0
  152.4453  149.1349  139.6407 O   0  0  0  0  0  0  0  0  0  0  0  0
  153.2146  150.3086  141.5754 C   0  0  0  0  0  0  0  0  0  0  0  0
  153.1927  151.4808  142.2866 C   0  0  0  0  0  0  0  0  0  0  0  0
  153.9201  151.5599  143.4608 O   0  0  0  0  0  0  0  0  0  0  0  0
  154.2524  153.2236  146.5971 C   0  0  0  0  0  0  0  0  0  0  0  0
  154.6405  152.8249  147.8578 C   0  0  0  0  0  0  0  0  0  0  0  0
  154.2277  153.6294  149.0347 C   0  0  0  0  0  0  0  0  0  0  0  0
  155.4260  154.0771  149.7969 C   0  0  0  0  0  0  0  0  0  0  0  0
  155.4289  154.8207  150.8736 C   0  0  0  0  0  0  0  0  0  0  0  0
  154.2309  155.6733  151.1852 C   0  0  0  0  0  0  0  0  0  0  0  0
  156.5597  154.8685  151.8112 C   0  0  0  0  0  0  0  0  0  0  0  0
  155.4132  151.6720  147.9932 C   0  0  0  0  0  0  0  0  0  0  0  0
  155.7784  151.3142  149.2965 O   0  0  0  0  0  0  0  0  0  0  0  0
  1  2  1  0
  2  3  1  0
  3  4  2  0
  4  5  1  0
  6  5  1  1
  6  7  1  0
  7  8  1  0
  8  9  2  0
  8 10  1  0
 10 11  2  0
 11 12  1  0
 12 13  2  0
 13 14  1  0
 13 15  1  0
 15 16  2  0
 16 17  1  0
  5 18  2  0
 18 19  1  0
 19 20  1  0
 20 21  1  0
 21 22  2  3
 22 23  1  0
 22 24  1  0
 19 25  2  0
 25 26  1  0
 25  3  1  0
 17  6  1  0
 16 10  1  0
M  END
$$$$
