
     RDKit          3D

 16 16  0  0  0  0  0  0  0  0999 V2000
    3.0913   31.1802   -2.3472 C   0  0  0  0  0  0  0  0  0  0  0  0
    2.7887   30.6403   -3.6828 C   0  0  0  0  0  0  0  0  0  0  0  0
    2.2152   29.5237   -3.7631 O   0  0  0  0  0  0  0  0  0  0  0  0
    3.1188   31.3274   -4.9274 C   0  0  0  0  0  0  0  0  0  0  0  0
    3.4381   32.6974   -4.9108 C   0  0  0  0  0  0  0  0  0  0  0  0
    3.4227   33.3705   -3.7373 F   0  0  0  0  0  0  0  0  0  0  0  0
    3.7703   33.3978   -6.0459 C   0  0  0  0  0  0  0  0  0  0  0  0
    3.8012   32.7603   -7.2692 C   0  0  0  0  0  0  0  0  0  0  0  0
    3.4875   31.4081   -7.2955 C   0  0  0  0  0  0  0  0  0  0  0  0
    3.1551   30.7112   -6.1534 C   0  0  0  0  0  0  0  0  0  0  0  0
    2.8467   29.3321   -6.2563 N   0  0  0  0  0  0  0  0  0  0  0  0
    1.4786   28.9194   -6.1633 C   0  0  0  0  0  0  0  0  0  0  0  0
    3.9402   28.3946   -6.4507 C   0  0  0  0  0  0  0  0  0  0  0  0
    4.6883   28.0583   -5.2046 C   0  0  0  0  0  0  0  0  0  0  0  0
    4.4769   26.5716   -4.9373 C   0  0  0  0  0  0  0  0  0  0  0  0
    6.0353   28.3137   -5.2245 O   0  0  0  0  0  0  0  0  0  0  0  0
  1  2  1  0
  2  3  2  0
  2  4  1  0
  4  5  2  0
  5  6  1  0
  5  7  1  0
  7  8  2  0
  8  9  1  0
  9 10  2  0
 10 11  1  0
 11 12  1  0
 11 13  1  0
 13 14  1  0
 14 15  1  0
 14 16  1  0
 10  4  1  0
M  END
$$$$
