
     RDKit          3D

  8  8  0  0  0  0  0  0  0  0999 V2000
   -0.4606   -6.8706  -55.4660 C   0  0  0  0  0  0  0  0  0  0  0  0
    0.2299   -5.8931  -56.3562 C   0  0  0  0  0  0  0  0  0  0  0  0
   -0.0624   -5.8340  -57.7142 C   0  0  0  0  0  0  0  0  0  0  0  0
    0.5839   -4.9248  -58.5267 C   0  0  0  0  0  0  0  0  0  0  0  0
    1.5339   -4.0488  -58.0314 C   0  0  0  0  0  0  0  0  0  0  0  0
    1.8161   -4.1160  -56.6828 C   0  0  0  0  0  0  0  0  0  0  0  0
    1.1767   -5.0240  -55.8480 C   0  0  0  0  0  0  0  0  0  0  0  0
    1.4708   -5.0892  -54.4602 N   0  0  0  0  0  0  0  0  0  0  0  0
  1  2  1  0
  2  3  2  0
  3  4  1  0
  4  5  2  0
  5  6  1  0
  6  7  2  0
  7  8  1  0
  7  2  1  0
M  END
$$$$
