
     RDKit          3D

  8  8  0  0  0  0  0  0  0  0999 V2000
  -14.3529  -11.1890   -5.7757 C   0  0  0  0  0  0  0  0  0  0  0  0
  -13.9516  -10.4691   -4.5326 C   0  0  0  0  0  0  0  0  0  0  0  0
  -14.8434   -9.6296   -3.8743 C   0  0  0  0  0  0  0  0  0  0  0  0
  -14.4592   -8.9694   -2.7249 C   0  0  0  0  0  0  0  0  0  0  0  0
  -13.1914   -9.1133   -2.1890 C   0  0  0  0  0  0  0  0  0  0  0  0
  -12.3149   -9.9485   -2.8501 C   0  0  0  0  0  0  0  0  0  0  0  0
  -12.6821  -10.6221   -4.0085 C   0  0  0  0  0  0  0  0  0  0  0  0
  -11.7759  -11.4808   -4.6853 N   0  0  0  0  0  0  0  0  0  0  0  0
  1  2  1  0
  2  3  2  0
  3  4  1  0
  4  5  2  0
  5  6  1  0
  6  7  2  0
  7  8  1  0
  7  2  1  0
M  END
$$$$
