
     RDKit          3D

 26 28  0  0  0  0  0  0  0  0999 V2000
   17.7619   20.4046   27.5270 C   0  0  0  0  0  0  0  0  0  0  0  0
   18.6022   20.5083   26.2860 C   0  0  0  0  0  0  0  0  0  0  0  0
   19.6170   19.6861   25.8580 C   0  0  0  0  0  0  0  0  0  0  0  0
   20.0303   18.4781   26.6388 C   0  0  0  0  0  0  0  0  0  0  0  0
   19.9462   18.4565   28.0118 C   0  0  0  0  0  0  0  0  0  0  0  0
   20.3216   17.3497   28.7377 C   0  0  0  0  0  0  0  0  0  0  0  0
   20.7932   16.2363   28.0785 C   0  0  0  0  0  0  0  0  0  0  0  0
   20.8868   16.2315   26.7107 C   0  0  0  0  0  0  0  0  0  0  0  0
   20.5052   17.3503   26.0059 C   0  0  0  0  0  0  0  0  0  0  0  0
   20.2039   19.9902   24.7417 N   0  0  0  0  0  0  0  0  0  0  0  0
   19.8191   21.0556   24.0629 C   0  0  0  0  0  0  0  0  0  0  0  0
   20.2999   21.6164   22.8293 N   0  0  0  0  0  0  0  0  0  0  0  0
   19.6124   22.7071   22.2621 C   0  0  0  0  0  0  0  0  0  0  0  0
   18.7182   23.2653   22.9739 O   0  0  0  0  0  0  0  0  0  0  0  0
   19.8256   23.2647   20.9248 C   0  0  0  0  0  0  0  0  0  0  0  0
   21.4257   24.0058   20.8556 S   0  0  0  0  0  6  0  0  0  0  0  0
   22.4050   22.9599   20.3693 O   0  0  0  0  0  0  0  0  0  0  0  0
   21.4565   25.1678   19.9000 O   0  0  0  0  0  0  0  0  0  0  0  0
   21.8808   24.6043   22.4280 C   0  0  0  0  0  0  0  0  0  0  0  0
   22.5681   23.8665   23.3691 C   0  0  0  0  0  0  0  0  0  0  0  0
   22.8786   24.4137   24.6245 C   0  0  0  0  0  0  0  0  0  0  0  0
   22.5150   25.6981   24.9707 C   0  0  0  0  0  0  0  0  0  0  0  0
   22.9344   26.4482   26.6892 Br  0  0  0  0  0  0  0  0  0  0  0  0
   21.8249   26.4426   24.0277 C   0  0  0  0  0  0  0  0  0  0  0  0
   21.5244   25.9039   22.8020 C   0  0  0  0  0  0  0  0  0  0  0  0
   18.5637   21.6751   25.0341 S   0  0  0  0  0  0  0  0  0  0  0  0
  1  2  1  0
  2  3  2  0
  3  4  1  0
  4  5  2  0
  5  6  1  0
  6  7  2  0
  7  8  1  0
  8  9  2  0
  3 10  1  0
 10 11  2  0
 11 12  1  0
 12 13  1  0
 13 14  2  0
 13 15  1  0
 15 16  1  0
 16 17  2  0
 16 18  2  0
 16 19  1  0
 19 20  2  0
 20 21  1  0
 21 22  2  0
 22 23  1  0
 22 24  1  0
 24 25  2  0
 11 26  1  0
 26  2  1  0
  9  4  1  0
 25 19  1  0
M  END
$$$$
