
     RDKit          3D

 24 26  0  0  0  0  0  0  0  0999 V2000
  173.1061  146.3354  164.0273 C   0  0  0  0  0  1  0  0  0  0  0  0
  174.0078  147.0926  163.1189 C   0  0  0  0  0  0  0  0  0  0  0  0
  173.4044  147.5619  161.8291 C   0  0  0  0  0  0  0  0  0  0  0  0
  174.2804  147.2394  160.7291 N   0  0  0  0  0  0  0  0  0  0  0  0
  173.8360  146.3362  159.7366 C   0  0  0  0  0  0  0  0  0  0  0  0
  172.6970  145.6208  159.9354 N   0  0  0  0  0  0  0  0  0  0  0  0
  172.2100  144.7209  159.0757 C   0  0  0  0  0  0  0  0  0  0  0  0
  171.0150  144.0110  159.3488 N   0  0  0  0  0  0  0  0  0  0  0  0
  170.3313  143.2431  158.3663 C   0  0  0  0  0  0  0  0  0  0  0  0
  169.2598  142.5346  158.6865 C   0  0  0  0  0  0  0  0  0  0  0  0
  168.5255  141.7325  157.7161 C   0  0  0  0  0  0  0  0  0  0  0  0
  167.4517  141.0254  158.0484 C   0  0  0  0  0  0  0  0  0  0  0  0
  166.7401  141.0413  159.6207 Cl  0  0  0  0  0  0  0  0  0  0  0  0
  169.0030  141.7192  156.3369 C   0  0  0  0  0  0  0  0  0  0  0  0
  168.1945  140.7854  155.0781 Cl  0  0  0  0  0  0  0  0  0  0  0  0
  170.0803  142.4460  156.0694 C   0  0  0  0  0  0  0  0  0  0  0  0
  170.7411  143.1921  157.0338 O   0  0  0  0  0  0  0  0  0  0  0  0
  172.9191  144.5356  157.9488 N   0  0  0  0  0  0  0  0  0  0  0  0
  174.0458  145.1981  157.6803 C   0  0  0  0  0  0  0  0  0  0  0  0
  174.7637  144.9950  156.5132 C   0  0  0  0  0  0  0  0  0  0  0  0
  175.9227  145.6718  156.2280 C   0  0  0  0  0  0  0  0  0  0  0  0
  176.3958  146.5883  157.1301 C   0  0  0  0  0  0  0  0  0  0  0  0
  175.7085  146.8253  158.3151 C   0  0  0  0  0  0  0  0  0  0  0  0
  174.5574  146.1351  158.5702 C   0  0  0  0  0  0  0  0  0  0  0  0
  1  2  1  0
  2  3  1  0
  3  4  1  0
  4  5  1  0
  5  6  2  0
  6  7  1  0
  7  8  1  0
  8  9  1  0
  9 10  2  0
 10 11  1  0
 11 12  2  3
 12 13  1  0
 11 14  1  0
 14 15  1  0
 14 16  2  0
 16 17  1  0
  7 18  2  0
 18 19  1  0
 19 20  2  0
 20 21  1  0
 21 22  2  0
 22 23  1  0
 23 24  2  0
 24  5  1  0
 17  9  1  0
 24 19  1  0
M  CHG  1   1  -1
M  RAD  1   1   3
M  END
$$$$
