
     RDKit          3D

 29 32  0  0  0  0  0  0  0  0999 V2000
  159.4865  154.3191  149.9097 C   0  0  0  0  0  0  0  0  0  0  0  0
  158.6882  153.2117  150.5766 C   0  0  0  0  0  0  0  0  0  0  0  0
  157.2354  153.3705  150.2527 C   0  0  0  0  0  0  0  0  0  0  0  0
  156.7732  152.8399  149.0660 C   0  0  0  0  0  0  0  0  0  0  0  0
  155.4116  152.9632  148.7525 C   0  0  0  0  0  0  0  0  0  0  0  0
  154.5138  153.5856  149.5682 C   0  0  0  0  0  0  0  0  0  0  0  0
  153.1358  153.7393  149.3292 N   0  0  0  0  0  0  0  0  0  0  0  0
  152.4818  153.9268  148.1031 C   0  0  0  0  0  0  0  0  0  0  0  0
  153.1807  154.0556  147.0622 O   0  0  0  0  0  0  0  0  0  0  0  0
  150.9814  153.9698  148.0201 C   0  0  0  0  0  0  0  0  0  0  0  0
  150.4770  153.8996  146.3012 S   0  0  0  0  0  0  0  0  0  0  0  0
  151.2209  152.5955  145.3678 C   0  0  0  0  0  0  0  0  0  0  0  0
  151.3617  151.3186  145.7704 N   0  0  0  0  0  0  0  0  0  0  0  0
  151.9695  150.4017  144.9913 C   0  0  0  0  0  0  0  0  0  0  0  0
  152.4574  150.7884  143.7502 C   0  0  0  0  0  0  0  0  0  0  0  0
  152.3412  152.0524  143.3027 N   0  0  0  0  0  0  0  0  0  0  0  0
  152.7227  152.6599  142.1650 N   0  0  0  0  0  0  0  0  0  0  0  0
  152.3771  153.9569  142.1817 C   0  0  0  0  0  0  0  0  0  0  0  0
  152.5941  154.9880  141.1735 C   0  0  0  0  0  0  0  0  0  0  0  0
  153.2955  154.7465  140.0126 C   0  0  0  0  0  0  0  0  0  0  0  0
  153.4981  155.7277  139.0613 C   0  0  0  0  0  0  0  0  0  0  0  0
  152.9976  157.0105  139.2385 C   0  0  0  0  0  0  0  0  0  0  0  0
  153.2708  158.2335  138.0176 Cl  0  0  0  0  0  0  0  0  0  0  0  0
  152.2928  157.2626  140.4001 C   0  0  0  0  0  0  0  0  0  0  0  0
  152.0902  156.2642  141.3618 C   0  0  0  0  0  0  0  0  0  0  0  0
  151.7444  154.1322  143.4197 C   0  0  0  0  0  0  0  0  0  0  0  0
  151.7298  152.9370  144.1059 C   0  0  0  0  0  0  0  0  0  0  0  0
  155.0275  154.1071  150.7595 C   0  0  0  0  0  0  0  0  0  0  0  0
  156.3550  154.0038  151.0960 C   0  0  0  0  0  0  0  0  0  0  0  0
  1  2  1  0
  2  3  1  0
  3  4  2  0
  4  5  1  0
  5  6  2  0
  6  7  1  0
  7  8  1  0
  8  9  2  0
  8 10  1  0
 10 11  1  0
 11 12  1  0
 12 13  2  0
 13 14  1  0
 14 15  2  0
 15 16  1  0
 16 17  1  0
 17 18  2  0
 18 19  1  0
 19 20  2  0
 20 21  1  0
 21 22  2  0
 22 23  1  0
 22 24  1  0
 24 25  2  0
 18 26  1  0
 26 27  2  0
  6 28  1  0
 28 29  2  0
 29  3  1  0
 27 12  1  0
 27 16  1  0
 25 19  1  0
M  END
$$$$
