
     RDKit          3D

 12 12  0  0  0  0  0  0  0  0999 V2000
  138.9419  166.1561  128.5145 O   0  0  0  0  0  0  0  0  0  0  0  0
  139.2273  167.2617  127.9400 C   0  0  0  0  0  0  0  0  0  0  0  0
  138.5043  167.8066  126.8872 O   0  0  0  0  0  0  0  0  0  0  0  0
  140.4056  167.9682  128.4605 C   0  0  0  0  0  0  0  0  0  0  0  0
  141.2616  168.5340  127.6308 C   0  0  0  0  0  0  0  0  0  0  0  0
  142.4359  169.3187  128.0153 C   0  0  0  0  0  0  0  0  0  0  0  0
  142.6963  169.6972  129.3176 C   0  0  0  0  0  0  0  0  0  0  0  0
  143.8166  170.4374  129.6335 C   0  0  0  0  0  0  0  0  0  0  0  0
  144.7258  170.8345  128.6780 C   0  0  0  0  0  0  0  0  0  0  0  0
  145.8273  171.5775  129.0800 O   0  0  0  0  0  0  0  0  0  0  0  0
  144.4857  170.4660  127.3607 C   0  0  0  0  0  0  0  0  0  0  0  0
  143.3584  169.7265  127.0741 C   0  0  0  0  0  0  0  0  0  0  0  0
  1  2  2  0
  2  3  1  0
  2  4  1  0
  4  5  2  3
  5  6  1  0
  6  7  2  0
  7  8  1  0
  8  9  2  0
  9 10  1  0
  9 11  1  0
 11 12  2  0
 12  6  1  0
M  END
$$$$
