
     RDKit          3D

 19 20  0  0  0  0  0  0  0  0999 V2000
    2.6229   -3.6345  -52.9831 C   0  0  0  0  0  0  0  0  0  0  0  0
    1.8474   -4.1715  -54.1712 C   0  0  0  0  0  0  0  0  0  0  0  0
    2.1822   -3.9126  -55.3912 N   0  0  0  0  0  0  0  0  0  0  0  0
    1.4688   -4.4081  -56.3932 C   0  0  0  0  0  0  0  0  0  0  0  0
    1.6651   -4.2455  -57.8061 N   0  0  0  0  0  0  0  0  0  0  0  0
    0.7014   -4.6899  -58.7477 C   0  0  0  0  0  0  0  0  0  0  0  0
   -0.2571   -5.3882  -58.3183 O   0  0  0  0  0  0  0  0  0  0  0  0
    0.7743   -4.3843  -60.1276 N   0  0  0  0  0  0  0  0  0  0  0  0
   -0.2089   -4.8098  -61.0588 C   0  0  0  0  0  0  0  0  0  0  0  0
   -1.2622   -3.9401  -61.3290 C   0  0  0  0  0  0  0  0  0  0  0  0
   -2.2319   -4.3153  -62.2230 C   0  0  0  0  0  0  0  0  0  0  0  0
   -2.1902   -5.5361  -62.8632 C   0  0  0  0  0  0  0  0  0  0  0  0
   -1.1252   -6.3848  -62.5733 C   0  0  0  0  0  0  0  0  0  0  0  0
   -1.1315   -7.6942  -63.2963 C   0  0  0  0  0  0  0  0  0  0  0  0
   -0.1377   -6.0353  -61.6807 C   0  0  0  0  0  0  0  0  0  0  0  0
    0.9734   -6.9727  -61.4067 C   0  0  0  0  0  0  0  0  0  0  0  0
    0.2587   -5.2879  -55.5724 S   0  0  0  0  0  0  0  0  0  0  0  0
    0.7486   -4.9621  -53.9585 C   0  0  0  0  0  0  0  0  0  0  0  0
    0.1549   -5.4079  -52.6544 C   0  0  0  0  0  0  0  0  0  0  0  0
  1  2  1  0
  2  3  1  0
  3  4  2  0
  4  5  1  0
  5  6  1  0
  6  7  2  0
  6  8  1  0
  8  9  1  0
  9 10  2  0
 10 11  1  0
 11 12  2  0
 12 13  1  0
 13 14  1  0
 13 15  2  0
 15 16  1  0
  4 17  1  0
 17 18  1  0
 18 19  1  0
 18  2  2  0
 15  9  1  0
M  END
$$$$
