
     RDKit          3D

 19 20  0  0  0  0  0  0  0  0999 V2000
    2.0280   -3.6734  -52.7591 C   0  0  0  0  0  0  0  0  0  0  0  0
    1.4252   -4.2932  -54.0057 C   0  0  0  0  0  0  0  0  0  0  0  0
    1.8155   -3.9761  -55.1950 N   0  0  0  0  0  0  0  0  0  0  0  0
    1.2541   -4.5489  -56.2511 C   0  0  0  0  0  0  0  0  0  0  0  0
    1.5353   -4.3432  -57.6438 N   0  0  0  0  0  0  0  0  0  0  0  0
    0.6692   -4.8276  -58.6578 C   0  0  0  0  0  0  0  0  0  0  0  0
   -0.3729   -5.4379  -58.2943 O   0  0  0  0  0  0  0  0  0  0  0  0
    0.9267   -4.6546  -60.0386 N   0  0  0  0  0  0  0  0  0  0  0  0
    0.0236   -5.0853  -61.0455 C   0  0  0  0  0  0  0  0  0  0  0  0
   -0.9371   -4.1775  -61.4831 C   0  0  0  0  0  0  0  0  0  0  0  0
   -1.8276   -4.5565  -62.4546 C   0  0  0  0  0  0  0  0  0  0  0  0
   -1.7955   -5.8180  -63.0109 C   0  0  0  0  0  0  0  0  0  0  0  0
   -0.8240   -6.7042  -62.5536 C   0  0  0  0  0  0  0  0  0  0  0  0
   -0.8364   -8.0570  -63.1920 C   0  0  0  0  0  0  0  0  0  0  0  0
    0.0827   -6.3520  -61.5801 C   0  0  0  0  0  0  0  0  0  0  0  0
    1.0961   -7.3304  -61.1281 C   0  0  0  0  0  0  0  0  0  0  0  0
    0.1128   -5.5925  -55.5298 S   0  0  0  0  0  0  0  0  0  0  0  0
    0.4287   -5.2256  -53.8817 C   0  0  0  0  0  0  0  0  0  0  0  0
   -0.1989   -5.7634  -52.6292 C   0  0  0  0  0  0  0  0  0  0  0  0
  1  2  1  0
  2  3  1  0
  3  4  2  0
  4  5  1  0
  5  6  1  0
  6  7  2  0
  6  8  1  0
  8  9  1  0
  9 10  2  0
 10 11  1  0
 11 12  2  0
 12 13  1  0
 13 14  1  0
 13 15  2  0
 15 16  1  0
  4 17  1  0
 17 18  1  0
 18 19  1  0
 18  2  2  0
 15  9  1  0
M  END
$$$$
