
     RDKit          3D

 24 26  0  0  0  0  0  0  0  0999 V2000
   39.9474   50.0181   23.1024 C   0  0  0  0  0  0  0  0  0  0  0  0
   40.0018   49.1172   22.0473 C   0  0  0  0  0  0  0  0  0  0  0  0
   39.0841   49.4129   20.9600 C   0  0  0  0  0  0  0  0  0  0  0  0
   38.8830   48.4846   19.9943 C   0  0  0  0  0  0  0  0  0  0  0  0
   39.8343   47.2683   20.2105 C   0  0  0  0  0  0  0  0  0  0  0  0
   40.6720   47.0378   20.9531 C   0  0  0  0  0  0  0  0  0  0  0  0
   41.7805   46.0263   21.3825 N   0  0  0  0  0  0  0  0  0  0  0  0
   42.7401   46.0358   20.5583 C   0  0  0  0  0  0  0  0  0  0  0  0
   43.6645   46.2875   19.4569 N   0  0  0  0  0  0  0  0  0  0  0  0
   44.0503   44.8904   19.0280 C   0  0  0  0  0  0  0  0  0  0  0  0
   44.5702   44.6934   17.7608 C   0  0  0  0  0  0  0  0  0  0  0  0
   44.5961   43.2696   17.3428 C   0  0  0  0  0  0  0  0  0  0  0  0
   44.2045   42.2984   18.0660 C   0  0  0  0  0  0  0  0  0  0  0  0
   44.0430   40.6221   17.5607 Cl  0  0  0  0  0  0  0  0  0  0  0  0
   43.7028   42.5902   19.3289 C   0  0  0  0  0  0  0  0  0  0  0  0
   43.1579   41.2321   20.4175 Cl  0  0  0  0  0  0  0  0  0  0  0  0
   43.5871   43.7890   19.8540 C   0  0  0  0  0  0  0  0  0  0  0  0
   42.3236   47.7903   20.5600 N   0  0  0  0  0  0  0  0  0  0  0  0
   42.2617   48.4166   21.6906 O   0  0  0  0  0  0  0  0  0  0  0  0
   40.8921   48.0650   22.2537 C   0  0  0  0  0  0  0  0  0  0  0  0
   41.1872   47.2071   23.1994 N   0  0  0  0  0  0  0  0  0  0  0  0
   39.7895   47.8884   24.6332 S   0  0  0  0  0  3  0  0  0  0  0  0
   41.1344   48.3261   25.4091 C   0  0  0  0  0  0  0  0  0  0  0  0
   42.8972   48.9381   26.4413 S   0  0  0  0  0  4  0  0  0  0  0  0
  1  2  2  0
  2  3  1  0
  3  4  2  0
  4  5  1  0
  5  6  2  0
  6  7  1  0
  7  8  2  0
  8  9  1  0
  9 10  1  0
 10 11  2  0
 11 12  1  0
 12 13  2  0
 13 14  1  0
 13 15  1  0
 15 16  1  0
 15 17  2  0
  8 18  1  0
 18 19  1  0
 19 20  1  0
 20 21  1  0
 21 22  2  3
 22 23  1  0
 23 24  3  0
 20  2  1  0
 20  6  1  0
 17 10  1  0
M  CHG  1  22  -1
M  END
$$$$
