
     RDKit          3D

 16 17  0  0  0  0  0  0  0  0999 V2000
  114.3793  147.2625  146.3765 O   0  0  0  0  0  0  0  0  0  0  0  0
  114.9354  148.5287  146.5609 C   0  0  0  0  0  0  0  0  0  0  0  0
  115.0211  149.1962  145.2238 C   0  0  0  0  0  0  0  0  0  0  0  0
  116.3021  149.0267  144.5808 N   0  0  0  0  0  0  0  0  0  0  0  0
  116.4741  147.6988  144.0635 C   0  0  0  0  0  0  0  0  0  0  0  0
  115.8009  147.6507  142.7706 C   0  0  0  0  0  0  0  0  0  0  0  0
  116.1529  147.3642  141.6668 C   0  0  0  0  0  0  0  0  0  0  0  0
  115.4597  147.3251  140.3932 C   0  0  0  0  0  0  0  0  0  0  0  0
  116.4416  146.7944  138.8940 C   0  0  0  0  0  0  0  0  0  0  0  0
  116.9338  146.8008  139.6793 C   0  0  0  0  0  0  0  0  0  0  0  0
  117.3947  146.8123  140.4426 P   0  0  0  0  0  5  0  0  0  0  0  0
  118.0192  146.8360  141.5165 C   0  0  0  0  0  0  0  0  0  0  0  0
  118.3600  146.9723  142.8394 N   0  0  0  0  0  0  0  0  0  0  0  0
  117.9087  147.2867  143.9446 C   0  0  0  0  0  0  0  0  0  0  0  0
  118.7693  147.2604  145.1749 C   0  0  0  0  0  0  0  0  0  0  0  0
  120.1514  148.3488  145.0729 Cl  0  0  0  0  0  0  0  0  0  0  0  0
  1  2  1  0
  2  3  1  0
  3  4  1  0
  4  5  1  0
  5  6  1  0
  6  7  2  0
  7  8  1  0
  8  9  2  0
  9 10  1  0
 10 11  3  0
 11 12  2  0
 12 13  1  0
 13 14  2  0
 14 15  1  0
 15 16  1  0
 14  5  1  0
 12  7  1  0
M  CHG  1  11  -1
M  RAD  1  11   2
M  END
$$$$
