
     RDKit          3D

 20 22  0  0  0  0  0  0  0  0999 V2000
    1.4302   -4.6999  -54.0633 C   0  0  0  0  0  0  0  0  0  0  0  0
    1.0539   -5.6945  -54.9893 O   0  0  0  0  0  0  0  0  0  0  0  0
    0.7677   -5.4443  -56.3084 C   0  0  0  0  0  0  0  0  0  0  0  0
    1.0015   -4.1586  -56.7749 C   0  0  0  0  0  0  0  0  0  0  0  0
    0.7302   -3.8550  -58.0944 C   0  0  0  0  0  0  0  0  0  0  0  0
    0.2266   -4.8201  -58.9595 C   0  0  0  0  0  0  0  0  0  0  0  0
   -0.0356   -4.4906  -60.2725 C   0  0  0  0  0  0  0  0  0  0  0  0
    0.1558   -3.3455  -60.7500 O   0  0  0  0  0  0  0  0  0  0  0  0
   -0.5349   -5.4984  -61.0775 C   0  0  0  0  0  0  0  0  0  0  0  0
   -0.7581   -6.7665  -60.5903 C   0  0  0  0  0  0  0  0  0  0  0  0
   -1.2819   -7.8251  -61.4334 C   0  0  0  0  0  0  0  0  0  0  0  0
   -2.5421   -8.3211  -61.3485 C   0  0  0  0  0  0  0  0  0  0  0  0
   -2.9793   -9.3330  -62.1844 C   0  0  0  0  0  0  0  0  0  0  0  0
   -2.1493   -9.8799  -63.1404 C   0  0  0  0  0  0  0  0  0  0  0  0
   -0.8679   -9.3918  -63.2435 C   0  0  0  0  0  0  0  0  0  0  0  0
   -0.4605   -8.3977  -62.4119 C   0  0  0  0  0  0  0  0  0  0  0  0
   -0.4886   -7.0357  -59.3129 O   0  0  0  0  0  0  0  0  0  0  0  0
   -0.0142   -6.1054  -58.5198 C   0  0  0  0  0  0  0  0  0  0  0  0
    0.2732   -6.3655  -57.1856 C   0  0  0  0  0  0  0  0  0  0  0  0
    0.0433   -7.6486  -56.7075 O   0  0  0  0  0  0  0  0  0  0  0  0
  1  2  1  0
  2  3  1  0
  3  4  2  0
  4  5  1  0
  5  6  2  0
  6  7  1  0
  7  8  2  0
  7  9  1  0
  9 10  2  0
 10 11  1  0
 11 12  2  0
 12 13  1  0
 13 14  2  0
 14 15  1  0
 15 16  2  0
 10 17  1  0
 17 18  1  0
 18 19  2  0
 19 20  1  0
 19  3  1  0
 18  6  1  0
 16 11  1  0
M  END
$$$$
