
     RDKit          3D

 29 31  0  0  0  0  0  0  0  0999 V2000
  130.9548  127.6949   76.0344 C   0  0  0  0  0  0  0  0  0  0  0  0
  130.0488  128.6656   76.4940 O   0  0  0  0  0  0  0  0  0  0  0  0
  129.2356  128.4444   77.5886 C   0  0  0  0  0  0  0  0  0  0  0  0
  129.3463  127.3205   78.1444 O   0  0  0  0  0  0  0  0  0  0  0  0
  128.2623  129.4778   78.1041 C   0  0  0  0  0  0  0  0  0  0  0  0
  126.9200  129.1100   77.5475 C   0  0  0  0  0  0  0  0  0  0  0  0
  126.7862  129.0839   76.1050 C   0  0  0  0  0  0  0  0  0  0  0  0
  126.8254  127.8951   75.4123 C   0  0  0  0  0  0  0  0  0  0  0  0
  126.6986  127.8713   74.0248 C   0  0  0  0  0  0  0  0  0  0  0  0
  126.5307  129.0294   73.3009 C   0  0  0  0  0  0  0  0  0  0  0  0
  126.4911  130.2216   73.9901 C   0  0  0  0  0  0  0  0  0  0  0  0
  126.3259  131.3730   73.2825 F   0  0  0  0  0  0  0  0  0  0  0  0
  126.6188  130.2426   75.3843 C   0  0  0  0  0  0  0  0  0  0  0  0
  128.7950  130.8077   77.7003 C   0  0  0  0  0  0  0  0  0  0  0  0
  129.7952  131.2726   78.7363 C   0  0  0  0  0  0  0  0  0  0  0  0
  129.2037  131.6367   79.9998 N   0  0  0  0  0  0  0  0  0  0  0  0
  130.0533  131.3553   81.1339 C   0  0  0  0  0  0  0  0  0  0  0  0
  131.0642  132.4250   81.2632 C   0  0  0  0  0  0  0  0  0  0  0  0
  132.4000  132.2503   80.9189 C   0  0  0  0  0  0  0  0  0  0  0  0
  133.3044  133.2794   81.0608 C   0  0  0  0  0  0  0  0  0  0  0  0
  134.7038  133.1230   80.7100 C   0  0  0  0  0  0  0  0  0  0  0  0
  135.8148  132.9809   80.4210 N   0  0  0  0  0  0  0  0  0  0  0  0
  132.9222  134.5197   81.5482 C   0  0  0  0  0  0  0  0  0  0  0  0
  131.6019  134.6947   81.8893 C   0  0  0  0  0  0  0  0  0  0  0  0
  130.6776  133.6653   81.7515 C   0  0  0  0  0  0  0  0  0  0  0  0
  129.3408  133.8096   82.0853 O   0  0  0  0  0  0  0  0  0  0  0  0
  128.6451  134.9238   81.5678 C   0  0  0  0  0  0  0  0  0  0  0  0
  127.9730  130.8812   80.1133 C   0  0  0  0  0  0  0  0  0  0  0  0
  128.2550  129.4597   79.6219 C   0  0  0  0  0  0  0  0  0  0  0  0
  1  2  1  0
  2  3  1  0
  3  4  2  0
  3  5  1  0
  5  6  1  0
  6  7  1  0
  7  8  2  0
  8  9  1  0
  9 10  2  0
 10 11  1  0
 11 12  1  0
 11 13  2  0
  5 14  1  0
 14 15  1  0
 15 16  1  0
 16 17  1  0
 17 18  1  0
 18 19  2  0
 19 20  1  0
 20 21  1  0
 21 22  3  0
 20 23  2  0
 23 24  1  0
 24 25  2  0
 25 26  1  0
 26 27  1  0
 16 28  1  0
 28 29  1  0
 29  5  1  0
 13  7  1  0
 25 18  1  0
M  END
$$$$
