
     RDKit          3D

 29 31  0  0  0  0  0  0  0  0999 V2000
  126.0835  140.8612  152.2800 C   0  0  0  0  0  0  0  0  0  0  0  0
  126.3250  141.1938  150.9364 O   0  0  0  0  0  0  0  0  0  0  0  0
  127.6041  141.2545  150.4183 C   0  0  0  0  0  0  0  0  0  0  0  0
  128.5446  141.1877  151.2522 O   0  0  0  0  0  0  0  0  0  0  0  0
  127.8800  141.3941  148.9400 C   0  0  0  0  0  0  0  0  0  0  0  0
  128.6708  142.6566  148.7742 C   0  0  0  0  0  0  0  0  0  0  0  0
  128.0009  143.9030  149.0858 C   0  0  0  0  0  0  0  0  0  0  0  0
  127.0441  144.4218  148.2432 C   0  0  0  0  0  0  0  0  0  0  0  0
  126.4018  145.6216  148.5429 C   0  0  0  0  0  0  0  0  0  0  0  0
  126.6995  146.3274  149.6860 C   0  0  0  0  0  0  0  0  0  0  0  0
  127.6567  145.8119  150.5321 C   0  0  0  0  0  0  0  0  0  0  0  0
  127.9586  146.5034  151.6655 F   0  0  0  0  0  0  0  0  0  0  0  0
  128.3005  144.6061  150.2286 C   0  0  0  0  0  0  0  0  0  0  0  0
  126.5606  141.3544  148.2519 C   0  0  0  0  0  0  0  0  0  0  0  0
  126.1720  139.9112  148.0155 C   0  0  0  0  0  0  0  0  0  0  0  0
  126.9712  139.2452  147.0171 N   0  0  0  0  0  0  0  0  0  0  0  0
  127.1637  137.8380  147.2808 C   0  0  0  0  0  0  0  0  0  0  0  0
  126.2316  137.0533  146.4451 C   0  0  0  0  0  0  0  0  0  0  0  0
  124.9444  136.7217  146.8530 C   0  0  0  0  0  0  0  0  0  0  0  0
  124.1145  135.9853  146.0368 C   0  0  0  0  0  0  0  0  0  0  0  0
  122.7675  135.6252  146.4391 C   0  0  0  0  0  0  0  0  0  0  0  0
  121.6945  135.3223  146.7472 N   0  0  0  0  0  0  0  0  0  0  0  0
  124.5260  135.5490  144.7870 C   0  0  0  0  0  0  0  0  0  0  0  0
  125.7984  135.8756  144.3815 C   0  0  0  0  0  0  0  0  0  0  0  0
  126.6474  136.6184  145.1944 C   0  0  0  0  0  0  0  0  0  0  0  0
  127.9341  136.9644  144.8151 O   0  0  0  0  0  0  0  0  0  0  0  0
  128.2336  136.9917  143.4357 C   0  0  0  0  0  0  0  0  0  0  0  0
  128.2540  139.9177  146.9982 C   0  0  0  0  0  0  0  0  0  0  0  0
  128.6577  140.1864  148.4496 C   0  0  0  0  0  0  0  0  0  0  0  0
  1  2  1  0
  2  3  1  0
  3  4  2  0
  3  5  1  0
  5  6  1  0
  6  7  1  0
  7  8  2  0
  8  9  1  0
  9 10  2  0
 10 11  1  0
 11 12  1  0
 11 13  2  0
  5 14  1  0
 14 15  1  0
 15 16  1  0
 16 17  1  0
 17 18  1  0
 18 19  2  0
 19 20  1  0
 20 21  1  0
 21 22  3  0
 20 23  2  0
 23 24  1  0
 24 25  2  0
 25 26  1  0
 26 27  1  0
 16 28  1  0
 28 29  1  0
 29  5  1  0
 13  7  1  0
 25 18  1  0
M  END
$$$$
