
     RDKit          3D

 26 26  0  0  0  0  0  0  0  0999 V2000
  127.2836  136.7750  144.7307 C   0  0  0  0  0  0  0  0  0  0  0  0
  128.0565  138.0311  144.5269 C   0  0  0  0  0  0  0  0  0  0  0  0
  128.7773  138.1426  143.2635 C   0  0  0  0  0  0  0  0  0  0  0  0
  128.5655  137.2896  142.2967 C   0  0  0  0  0  0  0  0  0  0  0  0
  129.2867  137.3259  141.0637 N   0  0  0  0  0  0  0  0  0  0  0  0
  128.8971  136.6216  140.0920 C   0  0  0  0  0  0  0  0  0  0  0  0
  128.4069  135.8323  139.2028 N   0  0  0  0  0  0  0  0  0  0  0  0
  128.1005  138.9999  145.4253 C   0  0  0  0  0  0  0  0  0  0  0  0
  127.4050  139.0373  146.6790 C   0  0  0  0  0  0  0  0  0  0  0  0
  127.5020  140.0302  147.5415 C   0  0  0  0  0  0  0  0  0  0  0  0
  126.3678  140.4005  148.2907 N   0  0  0  0  0  0  0  0  0  0  0  0
  126.5320  140.8077  149.6353 C   0  0  0  0  0  0  0  0  0  0  0  0
  126.2312  139.7442  150.6777 C   0  0  0  0  0  0  0  0  0  0  0  0
  125.3818  140.5851  151.9915 Cl  0  0  0  0  0  0  0  0  0  0  0  0
  126.8903  141.9319  150.0285 N   0  0  0  0  0  0  0  0  0  0  0  0
  126.9047  143.1971  149.4641 C   0  0  0  0  0  0  0  0  0  0  0  0
  126.8113  143.3407  148.0761 C   0  0  0  0  0  0  0  0  0  0  0  0
  126.8540  144.5932  147.5192 C   0  0  0  0  0  0  0  0  0  0  0  0
  126.9881  145.7234  148.3074 C   0  0  0  0  0  0  0  0  0  0  0  0
  127.0767  145.5528  149.6695 C   0  0  0  0  0  0  0  0  0  0  0  0
  127.0378  144.3042  150.2795 C   0  0  0  0  0  0  0  0  0  0  0  0
  127.1017  144.2355  151.7706 C   0  0  0  0  0  0  0  0  0  0  0  0
  128.1796  143.4346  152.1845 N   0  0  0  0  0  0  0  0  0  0  0  0
  128.4782  143.2656  153.5491 C   0  0  0  0  0  0  0  0  0  0  0  0
  129.6315  142.2642  153.6637 C   0  0  0  0  0  0  0  0  0  0  0  0
  130.4944  142.7005  154.6720 O   0  0  0  0  0  0  0  0  0  0  0  0
  1  2  1  0
  2  3  1  0
  3  4  2  3
  4  5  1  0
  5  6  2  0
  6  7  2  0
  2  8  2  3
  8  9  1  0
  9 10  2  3
 10 11  1  0
 11 12  1  0
 12 13  1  0
 13 14  1  0
 12 15  2  3
 15 16  1  0
 16 17  2  0
 17 18  1  0
 18 19  2  0
 19 20  1  0
 20 21  2  0
 21 22  1  0
 22 23  1  0
 23 24  1  0
 24 25  1  0
 25 26  1  0
 21 16  1  0
M  END
$$$$
