
     RDKit          3D

 23 24  0  0  0  0  0  0  0  0999 V2000
  173.6547  145.5545  156.2625 C   0  0  0  0  0  0  0  0  0  0  0  0
  173.2452  144.0820  156.3771 C   0  0  0  0  0  0  0  0  0  0  0  0
  172.8096  143.6008  155.0137 C   0  0  0  0  0  0  0  0  0  0  0  0
  171.6529  142.8707  155.0249 O   0  0  0  0  0  0  0  0  0  0  0  0
  170.6314  143.3560  154.2410 C   0  0  0  0  0  0  0  0  0  0  0  0
  169.4108  143.5478  155.0685 C   0  0  1  0  0  0  0  0  0  0  0  0
  168.2525  144.0332  154.1788 C   0  0  0  0  0  0  0  0  0  0  0  0
  168.9408  142.5160  155.8620 O   0  0  0  0  0  0  0  0  0  0  0  0
  167.7274  142.4684  156.5082 C   0  0  0  0  0  0  0  0  0  0  0  0
  167.4859  143.1405  157.6784 C   0  0  0  0  0  0  0  0  0  0  0  0
  168.4586  143.8270  158.4962 C   0  0  0  0  0  0  0  0  0  0  0  0
  169.9003  143.8488  158.2343 C   0  0  0  0  0  0  0  0  0  0  0  0
  168.1046  144.4700  159.5384 O   0  0  0  0  0  0  0  0  0  0  0  0
  166.2041  143.0696  158.2774 C   0  0  0  0  0  0  0  0  0  0  0  0
  165.2068  142.3317  157.7012 C   0  0  0  0  0  0  0  0  0  0  0  0
  163.9340  142.2637  158.2979 O   0  0  0  0  0  0  0  0  0  0  0  0
  163.6819  143.0700  159.4247 C   0  0  0  0  0  0  0  0  0  0  0  0
  165.4305  141.6558  156.5478 C   0  0  0  0  0  0  0  0  0  0  0  0
  164.3919  140.9158  156.0238 C   0  0  0  0  0  0  0  0  0  0  0  0
  164.5777  140.2056  154.8701 C   0  0  0  0  0  0  0  0  0  0  0  0
  165.7946  140.2415  154.2544 C   0  0  0  0  0  0  0  0  0  0  0  0
  166.8324  140.9999  154.8056 C   0  0  0  0  0  0  0  0  0  0  0  0
  166.6978  141.7345  155.9641 C   0  0  0  0  0  0  0  0  0  0  0  0
  1  2  1  0
  2  3  1  0
  3  4  1  0
  4  5  1  0
  5  6  1  0
  6  7  1  6
  6  8  1  0
  8  9  1  0
  9 10  2  0
 10 11  1  0
 11 12  1  0
 11 13  2  0
 10 14  1  0
 14 15  2  0
 15 16  1  0
 16 17  1  0
 15 18  1  0
 18 19  2  0
 19 20  1  0
 20 21  2  0
 21 22  1  0
 22 23  2  0
 23  9  1  0
 23 18  1  0
M  END
$$$$
