
     RDKit          3D

 13 14  0  0  0  0  0  0  0  0999 V2000
  169.8960  143.9571  156.7197 C   0  0  0  0  0  0  0  0  0  0  0  0
  168.3988  144.9135  156.5016 S   0  0  0  0  0  0  0  0  0  0  0  0
  167.1185  143.8956  155.7560 C   0  0  0  0  0  0  0  0  0  0  0  0
  167.4657  142.4670  156.0263 C   0  0  0  0  0  0  0  0  0  0  0  0
  167.2115  141.9287  157.2652 C   0  0  0  0  0  0  0  0  0  0  0  0
  167.5467  140.6079  157.4714 C   0  0  0  0  0  0  0  0  0  0  0  0
  168.1258  139.8467  156.4507 C   0  0  0  0  0  0  0  0  0  0  0  0
  168.3733  140.4042  155.2144 C   0  0  0  0  0  0  0  0  0  0  0  0
  169.1656  139.3185  153.8586 Br  0  0  0  0  0  0  0  0  0  0  0  0
  168.0422  141.7174  155.0027 C   0  0  0  0  0  0  0  0  0  0  0  0
  168.3386  138.5704  156.9784 O   0  0  0  0  0  0  0  0  0  0  0  0
  168.3581  138.7192  158.3788 C   0  0  0  0  0  0  0  0  0  0  0  0
  167.4272  139.7876  158.5678 O   0  0  0  0  0  0  0  0  0  0  0  0
  1  2  1  0
  2  3  1  0
  3  4  1  0
  4  5  2  0
  5  6  1  0
  6  7  2  0
  7  8  1  0
  8  9  1  0
  8 10  2  0
  7 11  1  0
 11 12  1  0
 12 13  1  0
 10  4  1  0
 13  6  1  0
M  END
$$$$
