
     RDKit          3D

 22 24  0  0  0  0  0  0  0  0999 V2000
  147.3381  153.8807  159.3708 O   0  0  0  0  0  0  0  0  0  0  0  0
  147.3112  154.0705  158.0004 C   0  0  0  0  0  0  0  0  0  0  0  0
  148.2890  155.1553  157.5854 C   0  0  0  0  0  0  0  0  0  0  0  0
  148.4791  155.1905  156.1622 N   0  0  0  0  0  0  0  0  0  0  0  0
  149.7805  155.6631  155.8259 C   0  0  0  0  0  0  0  0  0  0  0  0
  150.1668  155.6390  154.4226 C   0  0  0  0  0  0  0  0  0  0  0  0
  150.1460  154.6255  153.4148 N   0  0  0  0  0  0  0  0  0  0  0  0
  150.9976  154.6825  152.2669 C   0  0  0  0  0  0  0  0  0  0  0  0
  152.0489  155.4396  152.1944 C   0  0  0  0  0  0  0  0  0  0  0  0
  152.9236  155.3011  151.3492 N   0  0  0  0  0  4  0  0  0  0  0  0
  152.7378  154.7484  150.2489 C   0  0  0  0  0  0  0  0  0  0  0  0
  153.8688  154.9993  148.9403 Cl  0  0  0  0  0  0  0  0  0  0  0  0
  151.5648  153.9004  150.1009 C   0  0  0  0  0  0  0  0  0  0  0  0
  151.3021  152.9709  148.6718 Cl  0  0  0  0  0  0  0  0  0  0  0  0
  150.6812  153.8571  151.1080 C   0  0  0  0  0  0  0  0  0  0  0  0
  150.5989  156.8411  154.1096 N   0  0  0  0  0  0  0  0  0  0  0  0
  150.5425  157.7244  155.2021 C   0  0  0  0  0  0  0  0  0  0  0  0
  150.8889  159.0736  155.3378 C   0  0  0  0  0  0  0  0  0  0  0  0
  150.7084  159.6738  156.5719 C   0  0  0  0  0  0  0  0  0  0  0  0
  150.1976  158.9716  157.6601 C   0  0  0  0  0  0  0  0  0  0  0  0
  149.8742  157.6629  157.4843 C   0  0  0  0  0  0  0  0  0  0  0  0
  150.0407  157.0441  156.2809 C   0  0  0  0  0  0  0  0  0  0  0  0
  1  2  1  0
  2  3  1  0
  3  4  1  0
  4  5  1  0
  5  6  1  0
  6  7  1  0
  7  8  1  0
  8  9  2  0
  9 10  2  0
 10 11  2  0
 11 12  1  0
 11 13  1  0
 13 14  1  0
 13 15  2  0
  6 16  2  0
 16 17  1  0
 17 18  2  0
 18 19  1  0
 19 20  2  0
 20 21  1  0
 21 22  2  0
 22  5  1  0
 15  8  1  0
 22 17  1  0
M  CHG  1  10   1
M  END
$$$$
