
     RDKit          3D

 20 20  0  0  0  0  0  0  0  0999 V2000
    8.9655   28.9420   26.6544 C   0  0  0  0  0  0  0  0  0  0  0  0
    9.3501   29.9634   25.8698 C   0  0  0  0  0  0  0  0  0  0  0  0
   10.2380   31.3004   26.5742 Cl  0  0  0  0  0  0  0  0  0  0  0  0
    9.0481   29.9842   24.4582 C   0  0  0  0  0  0  0  0  0  0  0  0
    8.0479   31.2616   23.8226 Cl  0  0  0  0  0  0  0  0  0  0  0  0
    9.5229   29.0517   23.6696 C   0  0  0  0  0  0  0  0  0  0  0  0
   10.7791   28.4483   23.8987 N   0  0  0  0  0  0  0  0  0  0  0  0
   11.3249   27.6458   22.9700 O   0  0  0  0  0  0  0  0  0  0  0  0
   11.6421   28.3313   21.7995 C   0  0  0  0  0  0  0  0  0  0  0  0
   10.9409   27.6343   20.6488 C   0  0  0  0  0  0  0  0  0  0  0  0
   10.0477   28.6687   19.9497 C   0  0  0  0  0  0  0  0  0  0  0  0
    9.5550   29.6148   21.0215 C   0  0  0  0  0  0  0  0  0  0  0  0
    8.0464   29.6305   20.9651 C   0  0  0  0  0  0  0  0  0  0  0  0
    7.5069   30.8994   21.6370 C   0  0  0  0  0  0  0  0  0  0  0  0
    6.8364   31.7470   20.6085 C   0  0  0  0  0  0  0  0  0  0  0  0
    7.2355   33.1459   20.7320 N   0  0  0  0  0  0  0  0  0  0  0  0
    8.2065   33.4821   19.7148 C   0  0  0  0  0  0  0  0  0  0  0  0
    9.5874   32.9494   20.0955 C   0  0  0  0  0  0  0  0  0  0  0  0
    9.6289   31.5797   19.7863 O   0  0  0  0  0  0  0  0  0  0  0  0
   10.0748   30.9391   20.8853 N   0  0  0  0  0  0  0  0  0  0  0  0
  1  2  2  0
  2  3  1  0
  2  4  1  0
  4  5  1  0
  4  6  2  3
  6  7  1  0
  7  8  1  0
  8  9  1  0
  9 10  1  0
 10 11  1  0
 11 12  1  0
 12 13  1  0
 13 14  1  0
 14 15  1  0
 15 16  1  0
 16 17  1  0
 17 18  1  0
 18 19  1  0
 19 20  1  0
 20 12  1  0
M  END
$$$$
