
     RDKit          3D

 13 13  0  0  0  0  0  0  0  0999 V2000
   12.8857    7.6584  -21.4963 O   0  0  0  0  0  1  0  0  0  0  0  0
   14.1479    8.1964  -21.5701 N   0  0  0  0  0  0  0  0  0  0  0  0
   14.6798    8.2371  -22.7541 C   0  0  0  0  0  0  0  0  0  0  0  0
   15.9992    8.7579  -22.8381 N   0  0  0  0  0  0  0  0  0  0  0  0
   16.7326    8.8055  -24.0539 C   0  0  0  0  0  0  0  0  0  0  0  0
   18.0022    9.3518  -24.0137 C   0  0  0  0  0  0  0  0  0  0  0  0
   18.7569    9.4300  -25.1543 C   0  0  0  0  0  0  0  0  0  0  0  0
   18.2627    8.9655  -26.3587 C   0  0  0  0  0  0  0  0  0  0  0  0
   19.2703    9.0884  -27.7950 Cl  0  0  0  0  0  0  0  0  0  0  0  0
   17.0043    8.4195  -26.4200 C   0  0  0  0  0  0  0  0  0  0  0  0
   16.4948    7.9417  -27.6514 N   0  0  0  0  0  0  0  0  0  0  0  0
   14.9069    7.2410  -27.7915 Cl  0  0  0  0  0  0  0  0  0  0  0  0
   16.2542    8.3478  -25.2582 C   0  0  0  0  0  0  0  0  0  0  0  0
  1  2  1  0
  2  3  2  3
  3  4  1  0
  4  5  1  0
  5  6  2  0
  6  7  1  0
  7  8  2  0
  8  9  1  0
  8 10  1  0
 10 11  1  0
 11 12  1  0
 10 13  2  0
 13  5  1  0
M  CHG  1   1  -1
M  END
$$$$
