
     RDKit          3D

 16 15  0  0  0  0  0  0  0  0999 V2000
  133.5442  154.9124  151.7250 C   0  0  0  0  0  0  0  0  0  0  0  0
  133.3610  153.6247  151.4910 C   0  0  0  0  0  0  0  0  0  0  0  0
  133.6984  152.9327  150.2348 C   0  0  1  0  0  0  0  0  0  0  0  0
  135.1938  152.6373  150.2640 C   0  0  0  0  0  0  0  0  0  0  0  0
  132.9536  151.7511  150.1346 O   0  0  0  0  0  0  0  0  0  0  0  0
  133.3938  153.7926  149.0428 C   0  0  0  0  0  0  0  0  0  0  0  0
  133.6013  153.0025  147.7666 C   0  0  0  0  0  0  0  0  0  0  0  0
  133.1721  153.8417  146.6162 C   0  0  0  0  0  0  0  0  0  0  0  0
  133.1392  153.7023  145.2714 C   0  0  0  0  0  0  0  0  0  0  0  0
  133.6060  152.3616  144.8799 C   0  0  0  0  0  0  0  0  0  0  0  0
  132.6452  154.8521  144.5105 C   0  0  0  0  0  0  0  0  0  0  0  0
  133.1237  154.8943  143.1068 C   0  0  0  0  0  0  0  0  0  0  0  0
  132.6769  156.1118  142.4174 C   0  0  0  0  0  0  0  0  0  0  0  0
  133.0425  156.4110  141.1512 C   0  0  0  0  0  0  0  0  0  0  0  0
  133.8621  155.7094  140.1597 C   0  0  0  0  0  0  0  0  0  0  0  0
  132.6096  157.6672  140.4764 C   0  0  0  0  0  0  0  0  0  0  0  0
  1  2  2  0
  2  3  1  0
  3  4  1  1
  3  5  1  0
  3  6  1  0
  6  7  1  0
  7  8  1  0
  8  9  2  0
  9 10  1  0
  9 11  1  0
 11 12  1  0
 12 13  1  0
 13 14  2  3
 14 15  1  0
 14 16  1  0
M  END
$$$$
