
     RDKit          3D

 40 42  0  0  0  0  0  0  0  0999 V2000
    6.9972    1.5650   -0.2150 C   0  0  0  0  0  0  0  0  0  0  0  0
    6.4547    0.3582    0.3061 O   0  0  0  0  0  0  0  0  0  0  0  0
    5.1193    0.1440    0.1083 C   0  0  0  0  0  0  0  0  0  0  0  0
    4.2374    1.0012   -0.5470 C   0  0  0  0  0  0  0  0  0  0  0  0
    2.8861    0.6551   -0.6787 C   0  0  0  0  0  0  0  0  0  0  0  0
    2.3956   -0.5540   -0.1649 C   0  0  0  0  0  0  0  0  0  0  0  0
    0.9668   -0.8918   -0.3079 C   0  0  0  0  0  0  0  0  0  0  0  0
    0.5672   -2.1205   -0.6656 C   0  0  0  0  0  0  0  0  0  0  0  0
   -0.8708   -2.3901   -0.8005 C   0  0  0  0  0  0  0  0  0  0  0  0
   -1.2871   -3.4977   -1.1214 O   0  0  0  0  0  0  0  0  0  0  0  0
   -1.7908   -1.2778   -0.5329 C   0  0  0  0  0  0  0  0  0  0  0  0
   -3.1763   -1.4303   -0.6282 C   0  0  0  0  0  0  0  0  0  0  0  0
   -3.7554   -2.6243   -0.9785 O   0  0  0  0  0  0  0  0  0  0  0  0
   -4.0072   -0.3355   -0.3568 C   0  0  0  0  0  0  0  0  0  0  0  0
   -5.3695   -0.4567   -0.5038 O   0  0  0  0  0  0  0  0  0  0  0  0
   -5.9466   -0.9726    0.6942 C   0  0  0  0  0  0  0  0  0  0  0  0
   -3.4638    0.9166   -0.0137 C   0  0  0  0  0  0  0  0  0  0  0  0
   -4.3643    1.9228    0.2210 O   0  0  0  0  0  0  0  0  0  0  0  0
   -3.8484    3.2289    0.4381 C   0  0  0  0  0  0  0  0  0  0  0  0
   -2.0758    1.0498    0.0819 C   0  0  0  0  0  0  0  0  0  0  0  0
   -1.2462   -0.0456   -0.1784 C   0  0  0  0  0  0  0  0  0  0  0  0
    0.1066    0.1680   -0.0674 O   0  0  0  0  0  0  0  0  0  0  0  0
    3.2883   -1.4044    0.5001 C   0  0  0  0  0  0  0  0  0  0  0  0
    4.6367   -1.0568    0.6314 C   0  0  0  0  0  0  0  0  0  0  0  0
    6.8963    1.6052   -1.3046 H   0  0  0  0  0  0  0  0  0  0  0  0
    6.5388    2.4400    0.2577 H   0  0  0  0  0  0  0  0  0  0  0  0
    8.0655    1.5807    0.0212 H   0  0  0  0  0  0  0  0  0  0  0  0
    4.5640    1.9464   -0.9676 H   0  0  0  0  0  0  0  0  0  0  0  0
    2.2192    1.3417   -1.1970 H   0  0  0  0  0  0  0  0  0  0  0  0
    1.2408   -2.9411   -0.8762 H   0  0  0  0  0  0  0  0  0  0  0  0
   -3.0444   -3.2781   -1.1596 H   0  0  0  0  0  0  0  0  0  0  0  0
   -5.7289   -0.3265    1.5520 H   0  0  0  0  0  0  0  0  0  0  0  0
   -7.0320   -0.9980    0.5584 H   0  0  0  0  0  0  0  0  0  0  0  0
   -5.6083   -1.9946    0.8947 H   0  0  0  0  0  0  0  0  0  0  0  0
   -3.2743    3.2740    1.3692 H   0  0  0  0  0  0  0  0  0  0  0  0
   -3.2484    3.5657   -0.4138 H   0  0  0  0  0  0  0  0  0  0  0  0
   -4.6976    3.9118    0.5378 H   0  0  0  0  0  0  0  0  0  0  0  0
   -1.6102    1.9904    0.3569 H   0  0  0  0  0  0  0  0  0  0  0  0
    2.9491   -2.3411    0.9364 H   0  0  0  0  0  0  0  0  0  0  0  0
    5.3169   -1.7280    1.1508 H   0  0  0  0  0  0  0  0  0  0  0  0
  1  2  1  0
  2  3  1  0
  3  4  1  0
  4  5  2  0
  5  6  1  0
  6  7  1  0
  7  8  2  0
  8  9  1  0
  9 10  2  0
  9 11  1  0
 11 12  1  0
 12 13  1  0
 12 14  2  0
 14 15  1  0
 15 16  1  0
 14 17  1  0
 17 18  1  0
 18 19  1  0
 17 20  2  0
 20 21  1  0
 21 22  1  0
  6 23  2  0
 23 24  1  0
 24  3  2  0
 22  7  1  0
 21 11  2  0
  1 25  1  0
  1 26  1  0
  1 27  1  0
  4 28  1  0
  5 29  1  0
  8 30  1  0
 13 31  1  0
 16 32  1  0
 16 33  1  0
 16 34  1  0
 19 35  1  0
 19 36  1  0
 19 37  1  0
 20 38  1  0
 23 39  1  0
 24 40  1  0
M  END
