
     RDKit          3D

 26 28  0  0  0  0  0  0  0  0999 V2000
   -1.9606  -10.2582  -63.0364 C   0  0  0  0  0  0  0  0  0  0  0  0
   -3.2206  -10.7160  -62.3571 C   0  0  0  0  0  0  0  0  0  0  0  0
   -3.4487   -9.8930  -61.0921 C   0  0  2  0  0  0  0  0  0  0  0  0
   -3.8774  -10.7472  -60.0837 O   0  0  0  0  0  0  0  0  0  0  0  0
   -4.4935   -8.8746  -61.3349 C   0  0  0  0  0  0  0  0  0  0  0  0
   -5.5822   -9.1702  -61.8988 O   0  0  0  0  0  0  0  0  0  0  0  0
   -4.2669   -7.5714  -60.9329 O   0  0  0  0  0  0  0  0  0  0  0  0
   -3.0835   -6.8888  -61.2279 C   0  0  0  0  0  0  0  0  0  0  0  0
   -2.7361   -6.6599  -62.5382 C   0  0  0  0  0  0  0  0  0  0  0  0
   -3.5677   -7.1106  -63.5750 O   0  0  0  0  0  0  0  0  0  0  0  0
   -1.5690   -5.9868  -62.8171 C   0  0  0  0  0  0  0  0  0  0  0  0
   -0.7798   -5.5605  -61.7730 C   0  0  0  0  0  0  0  0  0  0  0  0
   -1.1421   -5.7982  -60.4523 C   0  0  0  0  0  0  0  0  0  0  0  0
   -0.3827   -5.3891  -59.3949 C   0  0  0  0  0  0  0  0  0  0  0  0
    0.6907   -4.7712  -59.6061 O   0  0  0  0  0  0  0  0  0  0  0  0
   -0.8047   -5.6602  -58.1029 C   0  0  0  0  0  0  0  0  0  0  0  0
   -0.0087   -5.2325  -56.9491 C   0  0  0  0  0  0  0  0  0  0  0  0
    0.0349   -6.0271  -55.8270 C   0  0  0  0  0  0  0  0  0  0  0  0
    0.7833   -5.6267  -54.7400 C   0  0  0  0  0  0  0  0  0  0  0  0
    1.4954   -4.4560  -54.7282 C   0  0  0  0  0  0  0  0  0  0  0  0
    2.2450   -4.0715  -53.6181 O   0  0  0  0  0  0  0  0  0  0  0  0
    1.4586   -3.6506  -55.8497 C   0  0  0  0  0  0  0  0  0  0  0  0
    0.7093   -4.0545  -56.9340 C   0  0  0  0  0  0  0  0  0  0  0  0
   -1.9960   -6.3452  -57.9040 C   0  0  0  0  0  0  0  0  0  0  0  0
   -2.7010   -6.7236  -58.9384 O   0  0  0  0  0  0  0  0  0  0  0  0
   -2.3133   -6.4733  -60.1828 C   0  0  0  0  0  0  0  0  0  0  0  0
  1  2  1  0
  2  3  1  0
  3  4  1  1
  3  5  1  0
  5  6  2  0
  5  7  1  0
  7  8  1  0
  8  9  2  0
  9 10  1  0
  9 11  1  0
 11 12  2  0
 12 13  1  0
 13 14  1  0
 14 15  2  0
 14 16  1  0
 16 17  1  0
 17 18  2  0
 18 19  1  0
 19 20  2  0
 20 21  1  0
 20 22  1  0
 22 23  2  0
 16 24  2  0
 24 25  1  0
 25 26  1  0
 26  8  1  0
 26 13  2  0
 23 17  1  0
M  END
$$$$
