
     RDKit          3D

 16 15  0  0  0  0  0  0  0  0999 V2000
  150.8867  146.4083  144.6884 C   0  0  0  0  0  0  0  0  0  0  0  0
  151.1922  147.7042  145.3498 C   0  0  0  0  0  0  0  0  0  0  0  0
  151.1226  148.8196  144.6700 C   0  0  0  0  0  0  0  0  0  0  0  0
  151.3761  150.0995  145.2200 N   0  0  0  0  0  0  0  0  0  0  0  0
  151.3863  151.1838  144.5330 C   0  0  0  0  0  0  0  0  0  0  0  0
  151.6387  152.4972  145.1293 C   0  0  0  0  0  0  0  0  0  0  0  0
  150.7260  153.5719  144.5883 C   0  0  0  0  0  0  0  0  0  0  0  0
  150.8609  154.8212  145.2824 N   0  0  0  0  0  0  0  0  0  0  0  0
  150.0471  155.7559  144.9905 C   0  0  0  0  0  0  0  0  0  0  0  0
  149.2225  156.5827  144.4412 N   0  0  0  0  0  0  0  0  0  0  0  0
  152.9340  152.9523  144.9134 O   0  0  0  0  0  0  0  0  0  0  0  0
  153.7583  152.3688  145.8717 C   0  0  0  0  0  0  0  0  0  0  0  0
  155.1605  152.8820  145.7504 C   0  0  0  0  0  0  0  0  0  0  0  0
  156.0918  151.9408  146.4483 C   0  0  0  0  0  0  0  0  0  0  0  0
  157.5430  152.3388  146.3764 C   0  0  0  0  0  0  0  0  0  0  0  0
  158.3068  151.2652  147.1654 C   0  0  0  0  0  0  0  0  0  0  0  0
  1  2  1  0
  2  3  2  3
  3  4  1  0
  4  5  2  3
  5  6  1  0
  6  7  1  0
  7  8  1  0
  8  9  2  0
  9 10  2  0
  6 11  1  0
 11 12  1  0
 12 13  1  0
 13 14  1  0
 14 15  1  0
 15 16  1  0
M  END
$$$$
