
     RDKit          3D

 27 29  0  0  0  0  0  0  0  0999 V2000
  128.1877  136.1351  139.4808 C   0  0  0  0  0  0  0  0  0  0  0  0
  127.4753  136.5215  140.6210 O   0  0  0  0  0  0  0  0  0  0  0  0
  127.8856  137.5707  141.4288 C   0  0  0  0  0  0  0  0  0  0  0  0
  128.5562  138.6308  140.8443 C   0  0  0  0  0  0  0  0  0  0  0  0
  128.9543  139.6635  141.6707 C   0  0  0  0  0  0  0  0  0  0  0  0
  128.6900  139.6343  143.0312 C   0  0  0  0  0  0  0  0  0  0  0  0
  128.0176  138.5701  143.6144 C   0  0  0  0  0  0  0  0  0  0  0  0
  127.7443  138.5387  145.0098 N   0  0  0  0  0  0  0  0  0  0  0  0
  127.8772  137.4606  145.7938 C   0  0  0  0  0  0  0  0  0  0  0  0
  127.5197  137.8407  147.0553 C   0  0  0  0  0  0  0  0  0  0  0  0
  127.1839  139.1352  146.9855 N   0  0  0  0  0  0  0  0  0  0  0  0
  127.3073  139.6035  145.7479 C   0  0  0  0  0  0  0  0  0  0  0  0
  126.9799  141.2327  145.1175 S   0  0  0  0  0  0  0  0  0  0  0  0
  126.1877  142.3204  146.3148 C   0  0  0  0  0  0  0  0  0  0  0  0
  127.0901  142.7372  147.4072 C   0  0  0  0  0  0  0  0  0  0  0  0
  128.3362  142.8892  147.1349 O   0  0  0  0  0  0  0  0  0  0  0  0
  126.6046  142.9668  148.7183 N   0  0  0  0  0  0  0  0  0  0  0  0
  127.4299  143.5423  149.7284 C   0  0  0  0  0  0  0  0  0  0  0  0
  127.9856  142.7309  150.6924 C   0  0  0  0  0  0  0  0  0  0  0  0
  127.7822  141.2512  150.7367 C   0  0  0  0  0  0  0  0  0  0  0  0
  128.7787  143.3055  151.6702 C   0  0  0  0  0  0  0  0  0  0  0  0
  129.0307  144.6606  151.7106 C   0  0  0  0  0  0  0  0  0  0  0  0
  128.4586  145.4507  150.7277 C   0  0  0  0  0  0  0  0  0  0  0  0
  127.6628  144.9209  149.7366 C   0  0  0  0  0  0  0  0  0  0  0  0
  127.1148  145.7502  148.7782 O   0  0  0  0  0  0  0  0  0  0  0  0
  127.5871  147.0778  148.6865 C   0  0  0  0  0  0  0  0  0  0  0  0
  127.6208  137.5384  142.7843 C   0  0  0  0  0  0  0  0  0  0  0  0
  1  2  1  0
  2  3  1  0
  3  4  2  0
  4  5  1  0
  5  6  2  0
  6  7  1  0
  7  8  1  0
  8  9  1  0
  9 10  2  0
 10 11  1  0
 11 12  2  0
 12 13  1  0
 13 14  1  0
 14 15  1  0
 15 16  2  0
 15 17  1  0
 17 18  1  0
 18 19  2  0
 19 20  1  0
 19 21  1  0
 21 22  2  0
 22 23  1  0
 23 24  2  0
 24 25  1  0
 25 26  1  0
  7 27  2  0
 27  3  1  0
 12  8  1  0
 24 18  1  0
M  END
$$$$
