
     RDKit          3D

 24 25  0  0  0  0  0  0  0  0999 V2000
  152.0414  157.1218  154.7648 C   0  0  0  0  0  0  0  0  0  0  0  0
  151.5370  156.1254  153.9029 O   0  0  0  0  0  0  0  0  0  0  0  0
  152.0585  155.9046  152.6324 C   0  0  0  0  0  0  0  0  0  0  0  0
  153.3689  156.2372  152.3636 C   0  0  0  0  0  0  0  0  0  0  0  0
  153.8769  156.0134  151.0973 C   0  0  0  0  0  0  0  0  0  0  0  0
  153.1034  155.4674  150.1039 C   0  0  0  0  0  0  0  0  0  0  0  0
  151.7958  155.1304  150.3555 C   0  0  0  0  0  0  0  0  0  0  0  0
  151.2984  155.3575  151.6216 C   0  0  0  0  0  0  0  0  0  0  0  0
  151.0240  154.5779  149.3387 O   0  0  0  0  0  0  0  0  0  0  0  0
  151.5543  154.0262  148.1578 C   0  0  0  0  0  0  0  0  0  0  0  0
  153.0479  153.8723  148.3003 C   0  0  1  0  0  0  0  0  0  0  0  0
  153.6922  153.3701  147.0826 C   0  0  0  0  0  0  0  0  0  0  0  0
  153.1932  153.6630  145.9647 O   0  0  0  0  0  0  0  0  0  0  0  0
  154.8617  152.5673  147.2068 N   0  0  0  0  0  0  0  0  0  0  0  0
  155.5940  152.1738  146.0251 C   0  0  2  0  0  0  0  0  0  0  0  0
  155.5546  150.6837  145.7939 C   0  0  0  0  0  0  0  0  0  0  0  0
  155.2740  150.3337  144.3525 C   0  0  0  0  0  0  0  0  0  0  0  0
  156.9191  150.1177  146.1277 C   0  0  0  0  0  0  0  0  0  0  0  0
  154.5275  149.9973  146.6509 C   0  0  0  0  0  0  0  0  0  0  0  0
  157.0473  152.5648  146.2274 C   0  0  0  0  0  0  0  0  0  0  0  0
  157.8614  152.0724  145.2259 F   0  0  0  0  0  0  0  0  0  0  0  0
  157.1573  153.9571  146.1581 F   0  0  0  0  0  0  0  0  0  0  0  0
  157.5419  152.0885  147.4190 F   0  0  0  0  0  0  0  0  0  0  0  0
  153.6315  155.2213  148.7438 C   0  0  0  0  0  0  0  0  0  0  0  0
  1  2  1  0
  2  3  1  0
  3  4  2  0
  4  5  1  0
  5  6  2  0
  6  7  1  0
  7  8  2  0
  7  9  1  0
  9 10  1  0
 10 11  1  0
 11 12  1  6
 12 13  2  0
 12 14  1  0
 15 14  1  1
 15 16  1  0
 16 17  1  0
 16 18  1  0
 16 19  1  0
 15 20  1  0
 20 21  1  0
 20 22  1  0
 20 23  1  0
 11 24  1  0
  8  3  1  0
 24  6  1  0
M  END
$$$$
