
     RDKit          3D

 17 18  0  0  0  0  0  0  0  0999 V2000
  133.4652  153.1142  144.6989 C   0  0  0  0  0  0  0  0  0  0  0  0
  134.2414  154.1166  145.4999 C   0  0  0  0  0  0  0  0  0  0  0  0
  134.7078  155.3399  144.7490 C   0  0  0  0  0  0  0  0  0  0  0  0
  134.5790  154.0752  146.7954 C   0  0  0  0  0  0  0  0  0  0  0  0
  134.0530  154.0537  148.1767 C   0  0  0  0  0  0  0  0  0  0  0  0
  134.9998  153.4348  149.0033 O   0  0  0  0  0  0  0  0  0  0  0  0
  134.8843  153.3575  150.3806 C   0  0  0  0  0  0  0  0  0  0  0  0
  135.9466  152.8841  151.1139 C   0  0  0  0  0  0  0  0  0  0  0  0
  135.7887  152.8230  152.4923 C   0  0  0  0  0  0  0  0  0  0  0  0
  134.6231  153.2171  153.1058 C   0  0  0  0  0  0  0  0  0  0  0  0
  134.5230  153.1345  154.4757 C   0  0  0  0  0  0  0  0  0  0  0  0
  133.3447  153.5359  155.0616 C   0  0  0  0  0  0  0  0  0  0  0  0
  132.3244  153.9994  154.2570 C   0  0  0  0  0  0  0  0  0  0  0  0
  131.2074  154.3938  154.6560 O   0  0  0  0  0  0  0  0  0  0  0  0
  132.4654  154.0609  152.9471 O   0  0  0  0  0  0  0  0  0  0  0  0
  133.5524  153.6955  152.3522 C   0  0  0  0  0  0  0  0  0  0  0  0
  133.7028  153.7599  150.9688 C   0  0  0  0  0  0  0  0  0  0  0  0
  1  2  1  0
  2  3  1  0
  2  4  2  3
  4  5  1  0
  5  6  1  0
  6  7  1  0
  7  8  2  0
  8  9  1  0
  9 10  2  0
 10 11  1  0
 11 12  2  0
 12 13  1  0
 13 14  2  0
 13 15  1  0
 15 16  1  0
 16 17  2  0
 17  7  1  0
 16 10  1  0
M  END
$$$$
