
     RDKit          3D

 31 34  0  0  0  0  0  0  0  0999 V2000
  121.9873  150.6834  146.4272 C   0  0  0  0  0  0  0  0  0  0  0  0
  122.9512  149.7509  146.0207 O   0  0  0  0  0  0  0  0  0  0  0  0
  122.9895  148.5057  146.6218 C   0  0  0  0  0  0  0  0  0  0  0  0
  121.9896  147.5943  146.3998 C   0  0  0  0  0  0  0  0  0  0  0  0
  122.0579  146.3697  147.0106 C   0  0  0  0  0  0  0  0  0  0  0  0
  123.1051  146.0359  147.8395 C   0  0  0  0  0  0  0  0  0  0  0  0
  124.1188  146.9360  148.0756 C   0  0  0  0  0  0  0  0  0  0  0  0
  125.1762  146.5871  148.9192 N   0  0  0  0  0  0  0  0  0  0  0  0
  126.1799  145.6737  148.5310 C   0  0  0  0  0  0  0  0  0  0  0  0
  126.0544  145.2513  147.3197 O   0  0  0  0  0  0  0  0  0  0  0  0
  127.2513  145.2157  149.3374 N   0  0  0  0  0  0  0  0  0  0  0  0
  128.1565  144.2966  148.7178 C   0  0  0  0  0  0  0  0  0  0  0  0
  127.7761  142.8664  148.7971 C   0  0  0  0  0  0  0  0  0  0  0  0
  127.6482  142.1362  149.9330 C   0  0  0  0  0  0  0  0  0  0  0  0
  127.2559  140.8034  149.8680 C   0  0  0  0  0  0  0  0  0  0  0  0
  126.9877  140.1897  148.6618 C   0  0  0  0  0  0  0  0  0  0  0  0
  126.5977  138.8653  148.5892 O   0  0  0  0  0  0  0  0  0  0  0  0
  126.3612  138.0545  149.7040 C   0  0  0  0  0  0  0  0  0  0  0  0
  127.1085  140.9060  147.4908 C   0  0  0  0  0  0  0  0  0  0  0  0
  126.8580  140.3531  146.2831 F   0  0  0  0  0  0  0  0  0  0  0  0
  127.4978  142.2216  147.5885 C   0  0  0  0  0  0  0  0  0  0  0  0
  127.4146  145.6559  150.6694 C   0  0  0  0  0  0  0  0  0  0  0  0
  128.4620  145.1391  151.4525 C   0  0  0  0  0  0  0  0  0  0  0  0
  128.6362  145.5170  152.7814 C   0  0  0  0  0  0  0  0  0  0  0  0
  127.7669  146.4162  153.3487 C   0  0  0  0  0  0  0  0  0  0  0  0
  126.7426  146.9287  152.6027 C   0  0  0  0  0  0  0  0  0  0  0  0
  126.5878  146.5464  151.2999 C   0  0  0  0  0  0  0  0  0  0  0  0
  125.2529  147.2851  150.4660 S   0  0  0  0  0  6  0  0  0  0  0  0
  125.3810  148.7815  150.4256 O   0  0  0  0  0  0  0  0  0  0  0  0
  124.0083  146.9648  151.2850 O   0  0  0  0  0  0  0  0  0  0  0  0
  124.0433  148.1855  147.4486 C   0  0  0  0  0  0  0  0  0  0  0  0
  1  2  1  0
  2  3  1  0
  3  4  2  0
  4  5  1  0
  5  6  2  0
  6  7  1  0
  7  8  1  0
  8  9  1  0
  9 10  2  0
  9 11  1  0
 11 12  1  0
 12 13  1  0
 13 14  2  0
 14 15  1  0
 15 16  2  0
 16 17  1  0
 17 18  1  0
 16 19  1  0
 19 20  1  0
 19 21  2  0
 11 22  1  0
 22 23  2  0
 23 24  1  0
 24 25  2  0
 25 26  1  0
 26 27  2  0
 27 28  1  0
 28 29  2  0
 28 30  2  0
  7 31  2  0
 31  3  1  0
 28  8  1  0
 21 13  1  0
 27 22  1  0
M  END
$$$$
