
     RDKit          3D

 18 18  0  0  0  0  0  0  0  0999 V2000
   -5.6328  -27.4441  -44.4529 C   0  0  0  0  0  3  0  0  0  0  0  0
   -4.5391  -27.3658  -43.8212 C   0  0  0  0  0  0  0  0  0  0  0  0
   -3.3049  -27.2971  -43.1267 C   0  0  0  0  0  0  0  0  0  0  0  0
   -2.2822  -26.5470  -43.9421 C   0  0  0  0  0  0  0  0  0  0  0  0
   -1.7873  -25.2988  -43.2767 C   0  0  0  0  0  0  0  0  0  0  0  0
   -0.8927  -24.5230  -44.0354 N   0  0  0  0  0  0  0  0  0  0  0  0
   -1.1814  -23.1479  -44.2017 C   0  0  0  0  0  0  0  0  0  0  0  0
   -0.5500  -22.2624  -43.1132 C   0  0  0  0  0  0  0  0  0  0  0  0
   -1.3672  -22.3471  -42.0082 O   0  0  0  0  0  0  0  0  0  0  0  0
   -1.0745  -23.3456  -41.1935 N   0  0  0  0  0  0  0  0  0  0  0  0
   -1.8568  -23.5796  -40.0067 C   0  0  0  0  0  0  0  0  0  0  0  0
   -1.5423  -24.6593  -39.1977 C   0  0  0  0  0  0  0  0  0  0  0  0
   -2.2798  -24.9327  -38.0654 C   0  0  0  0  0  0  0  0  0  0  0  0
   -3.3492  -24.1316  -37.7181 C   0  0  0  0  0  0  0  0  0  0  0  0
   -4.3156  -24.4482  -36.2819 Cl  0  0  0  0  0  0  0  0  0  0  0  0
   -3.6675  -23.0538  -38.5218 C   0  0  0  0  0  0  0  0  0  0  0  0
   -5.0013  -22.0004  -38.1469 Cl  0  0  0  0  0  0  0  0  0  0  0  0
   -2.9223  -22.7769  -39.6659 C   0  0  0  0  0  0  0  0  0  0  0  0
  1  2  3  0
  2  3  1  0
  3  4  1  0
  4  5  1  0
  5  6  1  0
  6  7  1  0
  7  8  1  0
  8  9  1  0
  9 10  1  0
 10 11  1  0
 11 12  2  0
 12 13  1  0
 13 14  2  0
 14 15  1  0
 14 16  1  0
 16 17  1  0
 16 18  2  0
 18 11  1  0
M  CHG  1   1  -1
M  END
$$$$
