
     RDKit          3D

 26 29  0  0  0  0  0  0  0  0999 V2000
    3.1647   -9.4536  -16.5678 C   0  0  0  0  0  0  0  0  0  0  0  0
    4.2870  -10.2775  -16.6719 O   0  0  0  0  0  0  0  0  0  0  0  0
    4.5823  -11.3538  -15.8830 C   0  0  0  0  0  0  0  0  0  0  0  0
    3.6000  -11.8648  -15.0603 C   0  0  0  0  0  0  0  0  0  0  0  0
    3.8094  -12.9526  -14.2274 C   0  0  0  0  0  0  0  0  0  0  0  0
    5.0551  -13.5591  -14.2137 C   0  0  0  0  0  0  0  0  0  0  0  0
    5.3069  -14.7125  -13.3420 C   0  0  0  0  0  0  0  0  0  0  0  0
    4.6817  -15.0362  -12.1996 N   0  0  0  0  0  0  0  0  0  0  0  0
    5.2067  -16.1796  -11.6900 C   0  0  0  0  0  0  0  0  0  0  0  0
    4.8317  -16.8773  -10.4819 C   0  0  0  0  0  0  0  0  0  0  0  0
    4.5305  -16.2735   -9.2806 C   0  0  0  0  0  0  0  0  0  0  0  0
    4.1786  -16.9845   -8.1575 C   0  0  0  0  0  0  0  0  0  0  0  0
    4.1154  -18.3512   -8.2016 C   0  0  0  0  0  0  0  0  0  0  0  0
    4.4105  -18.9882   -9.3871 C   0  0  0  0  0  0  0  0  0  0  0  0
    4.7626  -18.2539  -10.5059 C   0  0  0  0  0  0  0  0  0  0  0  0
    6.1893  -16.5738  -12.5484 C   0  0  0  0  0  0  0  0  0  0  0  0
    7.0506  -17.7283  -12.4616 C   0  0  0  0  0  0  0  0  0  0  0  0
    7.4337  -18.2493  -11.2410 C   0  0  0  0  0  0  0  0  0  0  0  0
    8.2524  -19.3469  -11.1197 C   0  0  0  0  0  0  0  0  0  0  0  0
    8.7232  -19.9705  -12.2334 C   0  0  0  0  0  0  0  0  0  0  0  0
    9.5502  -21.0796  -12.0807 O   0  0  0  0  0  0  0  0  0  0  0  0
    8.3719  -19.4920  -13.4829 C   0  0  0  0  0  0  0  0  0  0  0  0
    7.5516  -18.3924  -13.5795 C   0  0  0  0  0  0  0  0  0  0  0  0
    6.2298  -15.6567  -13.5524 N   0  0  0  0  0  0  0  0  0  0  0  0
    6.0236  -13.0528  -15.0270 C   0  0  0  0  0  0  0  0  0  0  0  0
    5.8122  -11.9598  -15.8635 C   0  0  0  0  0  0  0  0  0  0  0  0
  1  2  1  0
  2  3  1  0
  3  4  2  0
  4  5  1  0
  5  6  2  0
  6  7  1  0
  7  8  2  0
  8  9  1  0
  9 10  1  0
 10 11  2  0
 11 12  1  0
 12 13  2  0
 13 14  1  0
 14 15  2  0
  9 16  2  0
 16 17  1  0
 17 18  2  0
 18 19  1  0
 19 20  2  0
 20 21  1  0
 20 22  1  0
 22 23  2  0
 16 24  1  0
  6 25  1  0
 25 26  2  0
 26  3  1  0
 24  7  1  0
 15 10  1  0
 23 17  1  0
M  END
$$$$
