
     RDKit          3D

 26 29  0  0  0  0  0  0  0  0999 V2000
  -10.9754   -5.3183  -57.2575 C   0  0  0  0  0  0  0  0  0  0  0  0
   -9.7880   -4.6035  -57.0891 O   0  0  0  0  0  0  0  0  0  0  0  0
   -8.5673   -4.9175  -57.6178 C   0  0  0  0  0  0  0  0  0  0  0  0
   -7.4556   -4.2283  -57.1795 C   0  0  0  0  0  0  0  0  0  0  0  0
   -6.1797   -4.4791  -57.6591 C   0  0  0  0  0  0  0  0  0  0  0  0
   -6.0036   -5.4620  -58.6197 C   0  0  0  0  0  0  0  0  0  0  0  0
   -4.6645   -5.7499  -59.1469 C   0  0  0  0  0  0  0  0  0  0  0  0
   -4.3334   -6.5686  -60.1572 N   0  0  0  0  0  0  0  0  0  0  0  0
   -2.9881   -6.5625  -60.3387 C   0  0  0  0  0  0  0  0  0  0  0  0
   -2.2118   -7.2963  -61.3112 C   0  0  0  0  0  0  0  0  0  0  0  0
   -2.3940   -8.6243  -61.6300 C   0  0  0  0  0  0  0  0  0  0  0  0
   -1.6263   -9.2777  -62.5652 C   0  0  0  0  0  0  0  0  0  0  0  0
   -0.6308   -8.6089  -63.2252 C   0  0  0  0  0  0  0  0  0  0  0  0
   -0.4208   -7.2794  -62.9311 C   0  0  0  0  0  0  0  0  0  0  0  0
   -1.2046   -6.6405  -61.9865 C   0  0  0  0  0  0  0  0  0  0  0  0
   -2.4730   -5.7104  -59.4080 C   0  0  0  0  0  0  0  0  0  0  0  0
   -1.0937   -5.3527  -59.1808 C   0  0  0  0  0  0  0  0  0  0  0  0
   -0.7218   -4.0466  -58.9285 C   0  0  0  0  0  0  0  0  0  0  0  0
    0.5815   -3.6690  -58.7077 C   0  0  0  0  0  0  0  0  0  0  0  0
    1.5728   -4.6004  -58.7321 C   0  0  0  0  0  0  0  0  0  0  0  0
    2.8832   -4.1897  -58.5051 O   0  0  0  0  0  0  0  0  0  0  0  0
    1.2584   -5.9245  -58.9801 C   0  0  0  0  0  0  0  0  0  0  0  0
   -0.0524   -6.2787  -59.1982 C   0  0  0  0  0  0  0  0  0  0  0  0
   -3.5223   -5.2260  -58.6904 N   0  0  0  0  0  0  0  0  0  0  0  0
   -7.1028   -6.1413  -59.0510 C   0  0  0  0  0  0  0  0  0  0  0  0
   -8.3843   -5.8885  -58.5684 C   0  0  0  0  0  0  0  0  0  0  0  0
  1  2  1  0
  2  3  1  0
  3  4  2  0
  4  5  1  0
  5  6  2  0
  6  7  1  0
  7  8  2  0
  8  9  1  0
  9 10  1  0
 10 11  2  0
 11 12  1  0
 12 13  2  0
 13 14  1  0
 14 15  2  0
  9 16  2  0
 16 17  1  0
 17 18  2  0
 18 19  1  0
 19 20  2  0
 20 21  1  0
 20 22  1  0
 22 23  2  0
 16 24  1  0
  6 25  1  0
 25 26  2  0
 26  3  1  0
 24  7  1  0
 15 10  1  0
 23 17  1  0
M  END
$$$$
