
     RDKit          3D

  6  5  0  0  0  0  0  0  0  0999 V2000
   13.4247    4.9045    4.6663 C   0  0  0  0  0  0  0  0  0  0  0  0
   13.1946    6.2763    5.2323 C   0  0  0  0  0  0  0  0  0  0  0  0
   12.2487    7.1289    4.4370 C   0  0  0  0  0  0  0  0  0  0  0  0
   11.9947    8.4883    4.9586 C   0  0  0  0  0  0  0  0  0  0  0  0
   10.7800    9.0523    4.4611 C   0  0  0  0  0  0  0  0  0  0  0  0
    9.7860    9.5289    4.0678 N   0  0  0  0  0  0  0  0  0  0  0  0
  1  2  1  0
  2  3  1  0
  3  4  1  0
  4  5  1  0
  5  6  3  0
M  END
$$$$
