
     RDKit          3D

 17 17  0  0  0  0  0  0  0  0999 V2000
  146.9927  151.7059  163.1180 F   0  0  0  0  0  0  0  0  0  0  0  0
  148.1715  151.8879  163.6619 C   0  0  0  0  0  0  0  0  0  0  0  0
  149.2907  152.0641  164.2026 C   0  0  0  0  0  0  0  0  0  0  0  0
  150.5519  152.2873  164.8190 C   0  0  0  0  0  0  0  0  0  0  0  0
  150.6650  152.3406  166.1438 C   0  0  0  0  0  0  0  0  0  0  0  0
  151.9185  152.5579  166.8445 C   0  0  0  0  0  0  0  0  0  0  0  0
  151.8822  152.6220  168.1735 C   0  0  0  0  0  0  0  0  0  0  0  0
  153.0265  152.9630  169.0373 C   0  0  0  0  0  0  0  0  0  0  0  0
  153.3504  151.9313  169.9535 O   0  0  0  0  0  0  0  0  0  0  0  0
  154.6448  151.4482  169.8832 C   0  0  0  0  0  0  0  0  0  0  0  0
  155.2246  150.9865  170.9331 N   0  0  0  0  0  0  0  0  0  0  0  0
  156.5008  150.3399  170.8946 C   0  0  0  0  0  0  0  0  0  0  0  0
  157.1893  150.2425  169.6831 C   0  0  0  0  0  0  0  0  0  0  0  0
  158.4221  149.6366  169.5992 C   0  0  0  0  0  0  0  0  0  0  0  0
  159.0278  149.1017  170.7049 C   0  0  0  0  0  0  0  0  0  0  0  0
  158.3626  149.1874  171.9123 C   0  0  0  0  0  0  0  0  0  0  0  0
  157.1179  149.7983  171.9995 C   0  0  0  0  0  0  0  0  0  0  0  0
  1  2  1  0
  2  3  3  0
  3  4  1  0
  4  5  2  3
  5  6  1  0
  6  7  2  3
  7  8  1  0
  8  9  1  0
  9 10  1  0
 10 11  2  3
 11 12  1  0
 12 13  2  0
 13 14  1  0
 14 15  2  0
 15 16  1  0
 16 17  2  0
 17 12  1  0
M  END
$$$$
