
     RDKit          3D

 22 23  0  0  0  0  0  0  0  0999 V2000
  154.7911  142.8217  144.0308 N   0  0  0  0  0  0  0  0  0  0  0  0
  153.4828  143.3349  143.9053 C   0  0  0  0  0  0  0  0  0  0  0  0
  153.2433  144.6284  143.9346 C   0  0  0  0  0  0  0  0  0  0  0  0
  151.8100  145.0116  143.7892 C   0  0  0  0  0  0  0  0  0  0  0  0
  151.3095  144.3106  142.6536 N   0  0  0  0  0  0  0  0  0  0  0  0
  150.0828  144.8838  142.1526 C   0  0  0  0  0  0  0  0  0  0  0  0
  150.2574  145.3425  140.7389 C   0  0  0  0  0  0  0  0  0  0  0  0
  149.2105  144.8118  139.9437 N   0  0  0  0  0  0  0  0  0  0  0  0
  148.0212  145.2312  139.7711 C   0  0  0  0  0  0  0  0  0  0  0  0
  147.3250  146.3743  140.3146 C   0  0  0  0  0  0  0  0  0  0  0  0
  146.7254  146.4953  141.4864 C   0  0  0  0  0  0  0  0  0  0  0  0
  146.5724  145.5551  142.5764 C   0  0  0  0  0  0  0  0  0  0  0  0
  147.4093  145.2482  143.5408 C   0  0  0  0  0  0  0  0  0  0  0  0
  148.6720  145.7156  143.8185 O   0  0  0  0  0  3  0  0  0  0  0  0
  149.1009  145.9300  145.1403 N   0  0  0  0  0  0  0  0  0  0  0  0
  149.1537  144.5997  145.7331 C   0  0  0  0  0  0  0  0  0  0  0  0
  150.1337  144.5394  146.8796 C   0  0  0  0  0  0  0  0  0  0  0  0
  151.0604  143.5371  146.7437 O   0  0  0  0  0  0  0  0  0  0  0  0
  149.6517  146.0276  142.9166 N   0  0  0  0  0  0  0  0  0  0  0  0
  151.3275  142.8954  142.7126 C   0  0  0  0  0  0  0  0  0  0  0  0
  149.7437  142.1646  143.0363 Cl  0  0  0  0  0  0  0  0  0  0  0  0
  152.3295  142.4254  143.7368 C   0  0  0  0  0  0  0  0  0  0  0  0
  1  2  1  0
  2  3  2  0
  3  4  1  0
  4  5  1  0
  5  6  1  0
  6  7  1  0
  7  8  1  0
  8  9  2  0
  9 10  1  0
 10 11  2  0
 11 12  1  0
 12 13  2  0
 13 14  1  0
 14 15  1  0
 15 16  1  0
 16 17  1  0
 17 18  1  0
 14 19  1  0
  5 20  1  0
 20 21  1  0
 20 22  1  0
 22  2  1  0
 19  6  1  0
M  CHG  1  14   1
M  END
$$$$
