
     RDKit          3D

 22 23  0  0  0  0  0  0  0  0999 V2000
  154.6600  157.1900  143.4402 N   0  0  0  0  0  0  0  0  0  0  0  0
  154.1234  156.0054  143.9874 C   0  0  0  0  0  0  0  0  0  0  0  0
  152.9494  155.5431  143.6143 C   0  0  0  0  0  0  0  0  0  0  0  0
  152.5221  154.2818  144.2844 C   0  0  0  0  0  0  0  0  0  0  0  0
  153.6127  153.3701  144.1799 N   0  0  0  0  0  0  0  0  0  0  0  0
  153.2085  152.0034  144.4100 C   0  0  0  0  0  0  0  0  0  0  0  0
  153.5744  151.1444  143.2405 C   0  0  0  0  0  0  0  0  0  0  0  0
  154.2804  150.0047  143.7017 N   0  0  0  0  0  0  0  0  0  0  0  0
  153.8424  148.9073  144.1750 C   0  0  0  0  0  0  0  0  0  0  0  0
  152.4958  148.4400  144.4095 C   0  0  0  0  0  0  0  0  0  0  0  0
  151.7031  148.6883  145.4377 C   0  0  0  0  0  0  0  0  0  0  0  0
  151.9138  149.4830  146.6291 C   0  0  0  0  0  0  0  0  0  0  0  0
  151.7978  150.7797  146.8016 C   0  0  0  0  0  0  0  0  0  0  0  0
  151.4431  151.7757  145.9230 O   0  0  0  0  0  3  0  0  0  0  0  0
  150.6435  152.8597  146.3264 N   0  0  0  0  0  0  0  0  0  0  0  0
  150.7706  152.8940  147.7777 C   0  0  0  0  0  0  0  0  0  0  0  0
  151.5488  154.1020  148.2402 C   0  0  0  0  0  0  0  0  0  0  0  0
  151.8112  154.0904  149.5866 O   0  0  0  0  0  0  0  0  0  0  0  0
  151.7861  151.8698  144.6024 N   0  0  0  0  0  0  0  0  0  0  0  0
  154.8275  153.7471  144.8035 C   0  0  0  0  0  0  0  0  0  0  0  0
  155.1402  152.9170  146.3398 Cl  0  0  0  0  0  0  0  0  0  0  0  0
  154.8712  155.2405  145.0080 C   0  0  0  0  0  0  0  0  0  0  0  0
  1  2  1  0
  2  3  2  0
  3  4  1  0
  4  5  1  0
  5  6  1  0
  6  7  1  0
  7  8  1  0
  8  9  2  0
  9 10  1  0
 10 11  2  0
 11 12  1  0
 12 13  2  0
 13 14  1  0
 14 15  1  0
 15 16  1  0
 16 17  1  0
 17 18  1  0
 14 19  1  0
  5 20  1  0
 20 21  1  0
 20 22  1  0
 22  2  1  0
 19  6  1  0
M  CHG  1  14   1
M  END
$$$$
