
     RDKit          3D

 25 28  0  0  0  0  0  0  0  0999 V2000
  116.4324  147.6524  150.6670 C   0  0  0  0  0  0  0  0  0  0  0  0
  116.8802  149.0483  150.4306 C   0  0  0  0  0  0  0  0  0  0  0  0
  116.3143  150.1007  151.1518 C   0  0  0  0  0  0  0  0  0  0  0  0
  116.7163  151.3816  150.9437 C   0  0  0  0  0  0  0  0  0  0  0  0
  116.1170  152.3858  151.6910 O   0  0  0  0  0  0  0  0  0  0  0  0
  117.6993  151.6261  150.0016 C   0  0  0  0  0  0  0  0  0  0  0  0
  118.2703  150.6017  149.2795 C   0  0  0  0  0  0  0  0  0  0  0  0
  119.2727  150.8816  148.3238 N   0  0  0  0  0  0  0  0  0  0  0  0
  119.7228  149.8152  147.0551 S   0  0  0  0  0  6  0  0  0  0  0  0
  120.2718  148.5510  147.6501 O   0  0  0  0  0  0  0  0  0  0  0  0
  120.8055  150.4935  146.2643 O   0  0  0  0  0  0  0  0  0  0  0  0
  118.3523  149.4245  146.0288 C   0  0  0  0  0  0  0  0  0  0  0  0
  117.4875  148.4450  146.4689 C   0  0  0  0  0  0  0  0  0  0  0  0
  116.3877  148.1306  145.6461 C   0  0  0  0  0  0  0  0  0  0  0  0
  116.2400  148.7990  144.4808 C   0  0  0  0  0  0  0  0  0  0  0  0
  117.0744  149.7545  144.0408 C   0  0  0  0  0  0  0  0  0  0  0  0
  118.1617  150.0863  144.8231 C   0  0  0  0  0  0  0  0  0  0  0  0
  116.8567  150.4399  142.7674 C   0  0  0  0  0  0  0  0  0  0  0  0
  115.9133  149.7041  141.8484 C   0  0  0  0  0  0  0  0  0  0  0  0
  114.8301  148.9994  142.5321 C   0  0  0  0  0  0  0  0  0  0  0  0
  113.6457  148.9217  142.0590 O   0  0  0  0  0  0  0  0  0  0  0  0
  115.0979  148.3675  143.7830 N   0  0  0  0  0  0  0  0  0  0  0  0
  114.4368  147.3253  144.5539 C   0  0  0  0  0  0  0  0  0  0  0  0
  115.2805  147.1641  145.7837 C   0  0  0  0  0  0  0  0  0  0  0  0
  117.8622  149.2915  149.4894 C   0  0  0  0  0  0  0  0  0  0  0  0
  1  2  1  0
  2  3  2  0
  3  4  1  0
  4  5  1  0
  4  6  2  0
  6  7  1  0
  7  8  1  0
  8  9  1  0
  9 10  2  0
  9 11  2  0
  9 12  1  0
 12 13  2  0
 13 14  1  0
 14 15  2  0
 15 16  1  0
 16 17  2  0
 16 18  1  0
 18 19  1  0
 19 20  1  0
 20 21  2  0
 20 22  1  0
 22 23  1  0
 23 24  1  0
  7 25  2  0
 25  2  1  0
 17 12  1  0
 24 14  1  0
 22 15  1  0
M  END
$$$$
