
     RDKit          3D

 25 28  0  0  0  0  0  0  0  0999 V2000
  131.1369  140.0317  113.3196 C   0  0  0  0  0  0  0  0  0  0  0  0
  130.7754  141.3084  113.9862 C   0  0  0  0  0  0  0  0  0  0  0  0
  131.6076  141.8507  114.9666 C   0  0  0  0  0  0  0  0  0  0  0  0
  131.2867  143.0181  115.5830 C   0  0  0  0  0  0  0  0  0  0  0  0
  132.1534  143.5080  116.5500 O   0  0  0  0  0  0  0  0  0  0  0  0
  130.1173  143.6625  115.2212 C   0  0  0  0  0  0  0  0  0  0  0  0
  129.2826  143.1440  114.2562 C   0  0  0  0  0  0  0  0  0  0  0  0
  128.0946  143.8244  113.9070 N   0  0  0  0  0  0  0  0  0  0  0  0
  126.8655  144.2586  115.0251 S   0  0  0  0  0  6  0  0  0  0  0  0
  126.3487  145.6247  114.6782 O   0  0  0  0  0  0  0  0  0  0  0  0
  127.4976  144.3065  116.3874 O   0  0  0  0  0  0  0  0  0  0  0  0
  125.5359  143.1117  114.9944 C   0  0  0  0  0  0  0  0  0  0  0  0
  124.2741  143.6078  114.7445 C   0  0  0  0  0  0  0  0  0  0  0  0
  123.2066  142.6884  114.7198 C   0  0  0  0  0  0  0  0  0  0  0  0
  123.4733  141.3820  114.9402 C   0  0  0  0  0  0  0  0  0  0  0  0
  124.6967  140.8860  115.1846 C   0  0  0  0  0  0  0  0  0  0  0  0
  125.7642  141.7599  115.2156 C   0  0  0  0  0  0  0  0  0  0  0  0
  124.9167  139.4587  115.4156 C   0  0  0  0  0  0  0  0  0  0  0  0
  123.6553  138.7112  115.7706 C   0  0  0  0  0  0  0  0  0  0  0  0
  122.4530  139.2003  115.0976 C   0  0  0  0  0  0  0  0  0  0  0  0
  121.5219  138.4255  114.6908 O   0  0  0  0  0  0  0  0  0  0  0  0
  122.3041  140.6027  114.8811 N   0  0  0  0  0  0  0  0  0  0  0  0
  121.1702  141.4696  114.5983 C   0  0  0  0  0  0  0  0  0  0  0  0
  121.7570  142.8458  114.4897 C   0  0  0  0  0  0  0  0  0  0  0  0
  129.6071  141.9513  113.6241 C   0  0  0  0  0  0  0  0  0  0  0  0
  1  2  1  0
  2  3  2  0
  3  4  1  0
  4  5  1  0
  4  6  2  0
  6  7  1  0
  7  8  1  0
  8  9  1  0
  9 10  2  0
  9 11  2  0
  9 12  1  0
 12 13  2  0
 13 14  1  0
 14 15  2  0
 15 16  1  0
 16 17  2  0
 16 18  1  0
 18 19  1  0
 19 20  1  0
 20 21  2  0
 20 22  1  0
 22 23  1  0
 23 24  1  0
  7 25  2  0
 25  2  1  0
 17 12  1  0
 24 14  1  0
 22 15  1  0
M  END
$$$$
