
     RDKit          3D

 22 23  0  0  0  0  0  0  0  0999 V2000
   13.7146   30.0010   22.8200 C   0  0  0  0  0  0  0  0  0  0  0  0
   12.6253   29.6903   23.7962 C   0  0  0  0  0  0  0  0  0  0  0  0
   11.4070   29.2097   23.2281 N   0  0  0  0  0  0  0  0  0  0  0  0
   11.4066   27.8753   22.6174 C   0  0  0  0  0  0  0  0  0  0  0  0
   10.3416   26.9755   23.1314 C   0  0  0  0  0  0  0  0  0  0  0  0
   10.1920   29.9184   23.2024 C   0  0  0  0  0  0  0  0  0  0  0  0
    9.5667   30.2416   24.3997 C   0  0  0  0  0  0  0  0  0  0  0  0
    8.3742   30.9424   24.4107 C   0  0  0  0  0  0  0  0  0  0  0  0
    7.8064   31.3205   23.2142 C   0  0  0  0  0  0  0  0  0  0  0  0
    6.5605   32.0512   23.1952 N   0  0  0  0  0  0  0  0  0  0  0  0
    8.4454   30.9880   22.0516 C   0  0  0  0  0  0  0  0  0  0  0  0
    9.6295   30.2930   22.0109 C   0  0  0  0  0  0  0  0  0  0  0  0
   10.2235   29.9842   20.7632 N   0  0  0  0  0  0  0  0  0  0  0  0
    9.5425   29.3109   19.7156 C   0  0  0  0  0  0  0  0  0  0  0  0
    8.3196   29.0884   19.8901 O   0  0  0  0  0  0  0  0  0  0  0  0
   10.1670   28.8736   18.4778 C   0  0  0  0  0  0  0  0  0  0  0  0
   11.5324   28.6429   18.4606 C   0  0  0  0  0  0  0  0  0  0  0  0
   12.1902   28.2270   17.3206 C   0  0  0  0  0  0  0  0  0  0  0  0
   11.5178   28.0200   16.1380 C   0  0  0  0  0  0  0  0  0  0  0  0
   10.1501   28.2485   16.1465 C   0  0  0  0  0  0  0  0  0  0  0  0
    9.2881   27.9880   14.6465 Cl  0  0  0  0  0  0  0  0  0  0  0  0
    9.4951   28.6666   17.2966 C   0  0  0  0  0  0  0  0  0  0  0  0
  1  2  1  0
  2  3  1  0
  3  4  1  0
  4  5  1  0
  3  6  1  0
  6  7  2  0
  7  8  1  0
  8  9  2  0
  9 10  1  0
  9 11  1  0
 11 12  2  0
 12 13  1  0
 13 14  1  0
 14 15  2  0
 14 16  1  0
 16 17  2  0
 17 18  1  0
 18 19  2  0
 19 20  1  0
 20 21  1  0
 20 22  2  0
 12  6  1  0
 22 16  1  0
M  END
$$$$
