
     RDKit          3D

 22 24  0  0  0  0  0  0  0  0999 V2000
  116.9293  150.0213  124.8178 O   0  0  0  0  0  0  0  0  0  0  0  0
  118.2286  150.4903  124.5463 C   0  0  0  0  0  0  0  0  0  0  0  0
  119.1025  150.0487  125.6925 C   0  0  0  0  0  0  0  0  0  0  0  0
  118.5034  150.4940  126.9368 N   0  0  0  0  0  0  0  0  0  0  0  0
  119.2439  151.4613  127.7112 C   0  0  0  0  0  0  0  0  0  0  0  0
  120.3498  152.0306  127.2196 N   0  0  0  0  0  0  0  0  0  0  0  0
  121.0917  152.9373  127.8777 C   0  0  0  0  0  0  0  0  0  0  0  0
  122.5979  153.6532  127.0958 P   0  0  0  0  0  0  0  0  0  0  0  0
  123.0030  152.8087  125.5417 C   0  0  0  0  0  0  0  0  0  0  0  0
  122.1077  152.8728  124.5014 C   0  0  0  0  0  0  0  0  0  0  0  0
  122.3663  152.2426  123.2829 C   0  0  0  0  0  0  0  0  0  0  0  0
  123.5404  151.5500  123.1363 C   0  0  0  0  0  0  0  0  0  0  0  0
  124.4522  151.4841  124.1940 C   0  0  0  0  0  0  0  0  0  0  0  0
  125.9250  150.5978  123.9665 Cl  0  0  0  0  0  0  0  0  0  0  0  0
  124.1672  152.1172  125.3843 C   0  0  0  0  0  0  0  0  0  0  0  0
  120.6936  153.2938  129.1121 N   0  0  0  0  0  0  0  0  0  0  0  0
  119.5882  152.7740  129.6965 C   0  0  0  0  0  0  0  0  0  0  0  0
  119.1906  153.1494  130.9657 C   0  0  0  0  0  0  0  0  0  0  0  0
  118.0665  152.6229  131.5639 C   0  0  0  0  0  0  0  0  0  0  0  0
  117.3381  151.6973  130.8508 C   0  0  0  0  0  0  0  0  0  0  0  0
  117.7387  151.3196  129.5731 C   0  0  0  0  0  0  0  0  0  0  0  0
  118.8604  151.8452  128.9766 C   0  0  0  0  0  0  0  0  0  0  0  0
  1  2  1  0
  2  3  1  0
  3  4  1  0
  4  5  1  0
  5  6  2  0
  6  7  1  0
  7  8  1  0
  8  9  1  0
  9 10  2  0
 10 11  1  0
 11 12  2  0
 12 13  1  0
 13 14  1  0
 13 15  2  0
  7 16  2  0
 16 17  1  0
 17 18  2  0
 18 19  1  0
 19 20  2  0
 20 21  1  0
 21 22  2  0
 22  5  1  0
 15  9  1  0
 22 17  1  0
M  END
$$$$
