
     RDKit          3D

 24 25  0  0  0  0  0  0  0  0999 V2000
    8.3534   30.8496    0.9584 C   0  0  0  0  0  0  0  0  0  0  0  0
    7.1467   30.8478    0.0552 C   0  0  0  0  0  0  0  0  0  0  0  0
    7.5411   30.8827   -1.3127 O   0  0  0  0  0  0  0  0  0  0  0  0
    6.6145   30.9011   -2.3289 C   0  0  0  0  0  0  0  0  0  0  0  0
    5.3240   31.2388   -2.0812 C   0  0  0  0  0  0  0  0  0  0  0  0
    4.4297   31.2366   -3.1680 C   0  0  0  0  0  0  0  0  0  0  0  0
    4.8111   30.9116   -4.4422 C   0  0  0  0  0  0  0  0  0  0  0  0
    3.9265   30.8914   -5.6130 C   0  0  0  0  0  0  0  0  0  0  0  0
    3.0169   29.9901   -5.7616 C   0  0  0  0  0  0  0  0  0  0  0  0
    2.1280   29.6045   -6.8025 C   0  0  0  0  0  0  0  0  0  0  0  0
    1.5255   30.6167   -7.3813 O   0  0  0  0  0  0  0  0  0  0  0  0
    1.7736   28.3201   -7.3299 C   0  0  0  0  0  0  0  0  0  0  0  0
    0.9413   28.0812   -8.4008 C   0  0  0  0  0  0  0  0  0  0  0  0
    0.6946   26.7619   -8.7934 C   0  0  0  0  0  0  0  0  0  0  0  0
   -0.1509   26.5789   -9.8776 O   0  0  0  0  0  0  0  0  0  0  0  0
    1.2461   25.6788   -8.1586 C   0  0  0  0  0  0  0  0  0  0  0  0
    2.0786   25.9139   -7.0877 C   0  0  0  0  0  0  0  0  0  0  0  0
    2.3391   27.1993   -6.6796 C   0  0  0  0  0  0  0  0  0  0  0  0
    3.1972   27.3806   -5.5794 O   0  0  0  0  0  0  0  0  0  0  0  0
    6.1602   30.5746   -4.6174 C   0  0  0  0  0  0  0  0  0  0  0  0
    7.0797   30.5573   -3.6018 C   0  0  0  0  0  0  0  0  0  0  0  0
    8.4076   30.2208   -3.7893 O   0  0  0  0  0  0  0  0  0  0  0  0
    8.8834   29.8041   -5.0352 C   0  0  0  0  0  0  0  0  0  0  0  0
   10.3509   29.4789   -5.0739 C   0  0  0  0  0  0  0  0  0  0  0  0
  1  2  1  0
  2  3  1  0
  3  4  1  0
  4  5  2  0
  5  6  1  0
  6  7  2  0
  7  8  1  0
  8  9  2  3
  9 10  1  0
 10 11  2  0
 10 12  1  0
 12 13  2  0
 13 14  1  0
 14 15  1  0
 14 16  2  0
 16 17  1  0
 17 18  2  0
 18 19  1  0
  7 20  1  0
 20 21  2  0
 21 22  1  0
 22 23  1  0
 23 24  1  0
 21  4  1  0
 18 12  1  0
M  END
$$$$
