
     RDKit          3D

 27 29  0  0  0  0  0  0  0  0999 V2000
  153.9878  149.7820  145.1641 C   0  0  0  0  0  0  0  0  0  0  0  0
  152.6807  150.2243  144.5929 C   0  0  0  0  0  0  0  0  0  0  0  0
  152.6396  151.6003  144.2352 N   0  0  0  0  0  0  0  0  0  0  0  0
  151.9051  152.4635  145.0205 C   0  0  0  0  0  0  0  0  0  0  0  0
  151.1804  151.6694  146.4283 S   0  0  0  0  0  0  0  0  0  0  0  0
  150.2730  152.8273  147.4396 C   0  0  0  0  0  0  0  0  0  0  0  0
  151.1656  153.6457  148.3561 C   0  0  0  0  0  0  0  0  0  0  0  0
  152.0941  153.1813  149.0174 O   0  0  0  0  0  0  0  0  0  0  0  0
  150.8865  155.0354  148.4201 N   0  0  0  0  0  0  0  0  0  0  0  0
  151.4683  155.9889  149.2731 C   0  0  0  0  0  0  0  0  0  0  0  0
  151.6695  155.8248  150.6202 C   0  0  0  0  0  0  0  0  0  0  0  0
  152.1713  156.8429  151.4501 C   0  0  0  0  0  0  0  0  0  0  0  0
  152.4068  156.5167  153.1684 Cl  0  0  0  0  0  0  0  0  0  0  0  0
  152.4653  158.0500  150.8706 C   0  0  0  0  0  0  0  0  0  0  0  0
  152.2892  158.2892  149.5235 C   0  0  0  0  0  0  0  0  0  0  0  0
  151.7980  157.2588  148.7574 C   0  0  0  0  0  0  0  0  0  0  0  0
  151.5519  157.4799  147.0310 Cl  0  0  0  0  0  0  0  0  0  0  0  0
  151.8178  153.7650  144.7195 N   0  0  0  0  0  0  0  0  0  0  0  0
  152.4485  154.3030  143.6330 C   0  0  0  0  0  0  0  0  0  0  0  0
  152.3828  155.6488  143.3093 C   0  0  0  0  0  0  0  0  0  0  0  0
  153.0394  156.1676  142.2147 C   0  0  0  0  0  0  0  0  0  0  0  0
  153.7802  155.2936  141.4305 C   0  0  0  0  0  0  0  0  0  0  0  0
  154.4488  155.7699  140.3382 F   0  0  0  0  0  0  0  0  0  0  0  0
  153.8353  153.9596  141.7640 C   0  0  0  0  0  0  0  0  0  0  0  0
  153.1827  153.4313  142.8552 C   0  0  0  0  0  0  0  0  0  0  0  0
  153.2717  152.0794  143.1638 C   0  0  0  0  0  0  0  0  0  0  0  0
  153.9507  151.3033  142.4305 O   0  0  0  0  0  0  0  0  0  0  0  0
  1  2  1  0
  2  3  1  0
  3  4  1  0
  4  5  1  0
  5  6  1  0
  6  7  1  0
  7  8  2  0
  7  9  1  0
  9 10  1  0
 10 11  2  0
 11 12  1  0
 12 13  1  0
 12 14  2  0
 14 15  1  0
 15 16  2  0
 16 17  1  0
  4 18  2  0
 18 19  1  0
 19 20  2  0
 20 21  1  0
 21 22  2  0
 22 23  1  0
 22 24  1  0
 24 25  2  0
 25 26  1  0
 26 27  2  0
 26  3  1  0
 16 10  1  0
 25 19  1  0
M  END
$$$$
