
     RDKit          3D

 11 11  0  0  0  0  0  0  0  0999 V2000
   -4.2776  -27.1340  -37.4472 C   0  0  0  0  0  0  0  0  0  0  0  0
   -5.3042  -27.0108  -36.6738 C   0  0  0  0  0  0  0  0  0  0  0  0
   -6.4228  -27.9176  -36.5256 C   0  0  0  0  0  0  0  0  0  0  0  0
   -7.2168  -28.3771  -37.4714 C   0  0  0  0  0  0  0  0  0  0  0  0
   -7.1501  -28.0776  -38.8946 C   0  0  0  0  0  0  0  0  0  0  0  0
   -6.1540  -28.3769  -39.7276 C   0  0  0  0  0  0  0  0  0  0  0  0
   -5.0578  -29.0224  -39.2985 N   0  0  0  0  0  0  0  0  0  0  0  0
   -3.8665  -29.1513  -39.1267 C   0  0  0  0  0  0  0  0  0  0  0  0
   -2.9381  -28.1617  -39.5537 N   0  0  0  0  0  0  0  0  0  0  0  0
   -3.2657  -26.7416  -39.5708 C   0  0  0  0  0  0  0  0  0  0  0  0
   -4.1285  -26.3873  -38.4659 N   0  0  0  0  0  3  0  0  0  0  0  0
  1  2  2  0
  2  3  1  0
  3  4  2  0
  4  5  1  0
  5  6  2  0
  6  7  1  0
  7  8  2  0
  8  9  1  0
  9 10  1  0
 10 11  1  0
 11  1  2  0
M  CHG  1  11   1
M  RAD  1  11   2
M  END
$$$$
