
     RDKit          3D

 18 18  0  0  0  0  0  0  0  0999 V2000
  144.3886  152.5262  159.7525 N   0  0  0  0  0  0  0  0  0  0  0  0
  145.0068  152.8034  161.0149 C   0  0  0  0  0  0  0  0  0  0  0  0
  146.4928  152.7564  160.9602 C   0  0  0  0  0  0  0  0  0  0  0  0
  147.2699  153.7756  161.2733 C   0  0  0  0  0  0  0  0  0  0  0  0
  148.6807  153.7615  160.8011 C   0  0  0  0  0  0  0  0  0  0  0  0
  148.6987  153.4330  159.3653 C   0  0  0  0  0  0  0  0  0  0  0  0
  149.8767  153.7236  158.6218 N   0  0  0  0  0  0  0  0  0  0  0  0
  150.7224  154.6923  158.5674 C   0  0  0  0  0  0  0  0  0  0  0  0
  151.8698  154.6645  157.6467 C   0  0  0  0  0  0  0  0  0  0  0  0
  151.4577  154.4973  156.2264 C   0  0  0  0  0  0  0  0  0  0  0  0
  151.4000  153.3360  155.6083 C   0  0  0  0  0  0  0  0  0  0  0  0
  149.8992  152.7471  154.9563 Cl  0  0  0  0  0  0  0  0  0  0  0  0
  150.6180  155.8597  159.3856 N   0  0  0  0  0  0  0  0  0  0  0  0
  150.0041  156.0086  160.5128 C   0  0  0  0  0  0  0  0  0  0  0  0
  149.2743  155.0062  161.2058 N   0  0  0  0  0  0  0  0  0  0  0  0
  149.0897  155.2916  162.6102 C   0  0  0  0  0  0  0  0  0  0  0  0
  150.2688  154.8540  163.4442 C   0  0  0  0  0  0  0  0  0  0  0  0
  150.0707  153.4942  163.7389 O   0  0  0  0  0  0  0  0  0  0  0  0
  1  2  1  0
  2  3  1  0
  3  4  2  3
  4  5  1  0
  5  6  1  0
  6  7  1  0
  7  8  2  0
  8  9  1  0
  9 10  1  0
 10 11  2  3
 11 12  1  0
  8 13  1  0
 13 14  2  0
 14 15  1  0
 15 16  1  0
 16 17  1  0
 17 18  1  0
 15  5  1  0
M  END
$$$$
