
     RDKit          3D

 18 18  0  0  0  0  0  0  0  0999 V2000
  152.0943  149.8773  139.2353 N   0  0  0  0  0  0  0  0  0  0  0  0
  153.0195  150.9053  139.6092 C   0  0  0  0  0  0  0  0  0  0  0  0
  152.9876  151.2189  141.0632 C   0  0  0  0  0  0  0  0  0  0  0  0
  152.9554  152.4459  141.5473 C   0  0  0  0  0  0  0  0  0  0  0  0
  152.8680  152.6230  143.0220 C   0  0  0  0  0  0  0  0  0  0  0  0
  153.7616  151.6489  143.6720 C   0  0  0  0  0  0  0  0  0  0  0  0
  154.1270  151.8702  145.0293 N   0  0  0  0  0  0  0  0  0  0  0  0
  154.4628  152.8864  145.7444 C   0  0  0  0  0  0  0  0  0  0  0  0
  154.7890  152.7512  147.1728 C   0  0  0  0  0  0  0  0  0  0  0  0
  156.2508  152.6077  147.4130 C   0  0  0  0  0  0  0  0  0  0  0  0
  156.8916  151.4576  147.3885 C   0  0  0  0  0  0  0  0  0  0  0  0
  158.0534  151.1114  146.1417 Cl  0  0  0  0  0  0  0  0  0  0  0  0
  154.5458  154.2123  145.2170 N   0  0  0  0  0  0  0  0  0  0  0  0
  153.9675  154.7084  144.1734 C   0  0  0  0  0  0  0  0  0  0  0  0
  153.0926  154.0161  143.2943 N   0  0  0  0  0  0  0  0  0  0  0  0
  152.2497  154.8895  142.5104 C   0  0  0  0  0  0  0  0  0  0  0  0
  152.9585  156.1588  142.1054 C   0  0  0  0  0  0  0  0  0  0  0  0
  154.2235  155.7778  141.6260 O   0  0  0  0  0  0  0  0  0  0  0  0
  1  2  1  0
  2  3  1  0
  3  4  2  3
  4  5  1  0
  5  6  1  0
  6  7  1  0
  7  8  2  0
  8  9  1  0
  9 10  1  0
 10 11  2  3
 11 12  1  0
  8 13  1  0
 13 14  2  0
 14 15  1  0
 15 16  1  0
 16 17  1  0
 17 18  1  0
 15  5  1  0
M  END
$$$$
