
     RDKit          3D

 29 29  0  0  0  0  0  0  0  0999 V2000
   -2.1844   24.3162   16.5522 C   0  0  0  0  0  0  0  0  0  0  0  0
   -1.7528   25.0466   15.3072 C   0  0  0  0  0  0  0  0  0  0  0  0
   -2.0975   24.2235   14.1282 C   0  0  0  0  0  0  0  0  0  0  0  0
   -2.1764   24.7605   12.9375 C   0  0  0  0  0  0  0  0  0  0  0  0
   -2.3817   23.9590   11.7963 N   0  0  0  0  0  0  0  0  0  0  0  0
   -3.4075   24.2441   11.0315 C   0  0  0  0  0  0  0  0  0  0  0  0
   -4.5272   23.3305   10.9647 C   0  0  0  0  0  0  0  0  0  0  0  0
   -5.4543   23.2916   10.0561 C   0  0  0  0  0  0  0  0  0  0  0  0
   -6.6042   22.4510   10.0002 C   0  0  0  0  0  0  0  0  0  0  0  0
   -7.6684   22.9846    9.4207 C   0  0  0  0  0  0  0  0  0  0  0  0
   -8.7621   23.5098    8.9806 C   0  0  0  0  0  0  0  0  0  0  0  0
   -9.1192   24.7261    9.5773 N   0  0  0  0  0  0  0  0  0  0  0  0
  -10.1010   25.3807    9.1023 N   0  0  0  0  0  0  0  0  0  0  0  0
  -10.5680   26.6379    9.6216 C   0  0  0  0  0  0  0  0  0  0  0  0
  -10.1689   27.7252    8.7127 C   0  0  0  0  0  0  0  0  0  0  0  0
   -9.6327   28.8606    9.2007 C   0  0  0  0  0  0  0  0  0  0  0  0
   -9.0433   28.8784   10.8615 Cl  0  0  0  0  0  0  0  0  0  0  0  0
  -12.0530   26.6170    9.9121 C   0  0  0  0  0  0  0  0  0  0  0  0
  -12.7753   25.6330    9.0047 C   0  0  0  0  0  0  0  0  0  0  0  0
  -12.5777   24.2161    9.4945 C   0  0  0  0  0  0  0  0  0  0  0  0
  -12.2869   23.2678    8.3481 C   0  0  0  0  0  0  0  0  0  0  0  0
  -11.5789   22.0464    8.7561 C   0  0  0  0  0  0  0  0  0  0  0  0
  -10.3594   21.8730    8.5629 N   0  0  0  0  0  0  0  0  0  0  0  0
   -9.4594   22.7741    7.9429 C   0  0  0  0  0  0  0  0  0  0  0  0
   -8.2400   21.8063    7.0259 Cl  0  0  0  0  0  0  0  0  0  0  0  0
   -3.3595   25.4556   10.2916 N   0  0  0  0  0  0  0  0  0  0  0  0
   -4.5492   25.9073    9.5684 C   0  0  0  0  0  0  0  0  0  0  0  0
   -4.2686   27.2805    9.0337 C   0  0  0  0  0  0  0  0  0  0  0  0
   -4.4875   27.2954    7.6655 O   0  0  0  0  0  0  0  0  0  0  0  0
  1  2  1  0
  2  3  1  0
  3  4  2  3
  4  5  1  0
  5  6  2  3
  6  7  1  0
  7  8  2  3
  8  9  1  0
  9 10  2  0
 10 11  2  0
 11 12  1  0
 12 13  2  0
 13 14  1  0
 14 15  1  0
 15 16  2  3
 16 17  1  0
 14 18  1  0
 18 19  1  0
 19 20  1  0
 20 21  1  0
 21 22  1  0
 22 23  2  0
 23 24  1  0
 24 25  1  0
  6 26  1  0
 26 27  1  0
 27 28  1  0
 28 29  1  0
 24 11  1  0
M  END
$$$$
