
     RDKit          3D

 22 23  0  0  0  0  0  0  0  0999 V2000
  147.4695  153.9840  160.7936 C   0  0  0  0  0  0  0  0  0  0  0  0
  148.3275  153.8636  162.0148 C   0  0  0  0  0  0  0  0  0  0  0  0
  149.3786  154.7366  162.2349 C   0  0  0  0  0  0  0  0  0  0  0  0
  150.1629  154.6180  163.3633 C   0  0  0  0  0  0  0  0  0  0  0  0
  149.9507  153.6465  164.3133 C   0  0  0  0  0  0  0  0  0  0  0  0
  150.7989  153.5355  165.5208 C   0  0  0  0  0  0  0  0  0  0  0  0
  151.7464  154.4659  165.8716 C   0  0  0  0  0  0  0  0  0  0  0  0
  152.3250  154.0331  167.0370 C   0  0  0  0  0  0  0  0  0  0  0  0
  151.6965  152.8399  167.3515 C   0  0  0  0  0  0  0  0  0  0  0  0
  152.0282  152.0322  168.5548 C   0  0  0  0  0  0  0  0  0  0  0  0
  153.3010  152.3689  169.0900 N   0  0  0  0  0  0  0  0  0  0  0  0
  154.3198  151.3760  168.9873 C   0  0  0  0  0  0  0  0  0  0  0  0
  155.3868  151.6227  170.0257 C   0  0  0  0  0  0  0  0  0  0  0  0
  156.3895  150.6084  169.9937 N   0  0  0  0  0  4  0  0  0  0  0  0
  157.4567  150.7434  170.9379 C   0  0  0  0  0  0  0  0  0  0  0  0
  158.4172  149.5631  170.7954 C   0  0  1  0  0  0  0  0  0  0  0  0
  159.3274  149.8341  169.6210 C   0  0  0  0  0  0  0  0  0  0  0  0
  159.2652  149.5076  171.9223 O   0  0  0  0  0  0  0  0  0  0  0  0
  150.8133  152.6090  166.4189 O   0  0  0  0  0  0  0  0  0  0  0  0
  148.9052  152.7756  164.0966 C   0  0  0  0  0  0  0  0  0  0  0  0
  148.1045  152.8875  162.9577 C   0  0  0  0  0  0  0  0  0  0  0  0
  146.7768  151.7555  162.7308 Cl  0  0  0  0  0  0  0  0  0  0  0  0
  1  2  1  0
  2  3  2  0
  3  4  1  0
  4  5  2  0
  5  6  1  0
  6  7  2  0
  7  8  1  0
  8  9  2  0
  9 10  1  0
 10 11  1  0
 11 12  1  0
 12 13  1  0
 13 14  1  0
 14 15  1  0
 15 16  1  0
 16 17  1  6
 16 18  1  0
  9 19  1  0
  5 20  1  0
 20 21  2  0
 21 22  1  0
 21  2  1  0
 19  6  1  0
M  CHG  1  14   1
M  END
$$$$
