
     RDKit          3D

 22 23  0  0  0  0  0  0  0  0999 V2000
  157.0115  154.4513  149.2121 C   0  0  0  0  0  0  0  0  0  0  0  0
  156.2642  153.4873  148.3436 C   0  0  0  0  0  0  0  0  0  0  0  0
  154.9228  153.6768  148.0606 C   0  0  0  0  0  0  0  0  0  0  0  0
  154.2433  152.7835  147.2590 C   0  0  0  0  0  0  0  0  0  0  0  0
  154.8460  151.6773  146.7074 C   0  0  0  0  0  0  0  0  0  0  0  0
  154.1035  150.7306  145.8458 C   0  0  0  0  0  0  0  0  0  0  0  0
  154.6496  149.5771  145.3381 C   0  0  0  0  0  0  0  0  0  0  0  0
  153.6745  148.9614  144.5963 C   0  0  0  0  0  0  0  0  0  0  0  0
  152.5594  149.7777  144.6845 C   0  0  0  0  0  0  0  0  0  0  0  0
  151.2662  149.4720  144.0178 C   0  0  0  0  0  0  0  0  0  0  0  0
  151.4108  149.3302  142.6111 N   0  0  0  0  0  0  0  0  0  0  0  0
  150.7042  148.2512  142.0020 C   0  0  0  0  0  0  0  0  0  0  0  0
  151.0066  148.2056  140.5242 C   0  0  0  0  0  0  0  0  0  0  0  0
  150.4043  147.0710  139.9038 N   0  0  0  0  0  4  0  0  0  0  0  0
  149.1835  147.3103  139.1959 C   0  0  0  0  0  0  0  0  0  0  0  0
  148.7952  146.0585  138.4096 C   0  0  1  0  0  0  0  0  0  0  0  0
  147.6364  146.4088  137.5065 C   0  0  0  0  0  0  0  0  0  0  0  0
  149.8507  145.7002  137.5438 O   0  0  0  0  0  0  0  0  0  0  0  0
  152.8829  150.7970  145.4323 O   0  0  0  0  0  0  0  0  0  0  0  0
  156.1813  151.4857  146.9879 C   0  0  0  0  0  0  0  0  0  0  0  0
  156.8789  152.3846  147.7979 C   0  0  0  0  0  0  0  0  0  0  0  0
  158.5850  152.0997  148.1199 Cl  0  0  0  0  0  0  0  0  0  0  0  0
  1  2  1  0
  2  3  2  0
  3  4  1  0
  4  5  2  0
  5  6  1  0
  6  7  2  0
  7  8  1  0
  8  9  2  0
  9 10  1  0
 10 11  1  0
 11 12  1  0
 12 13  1  0
 13 14  1  0
 14 15  1  0
 15 16  1  0
 16 17  1  6
 16 18  1  0
  9 19  1  0
  5 20  1  0
 20 21  2  0
 21 22  1  0
 21  2  1  0
 19  6  1  0
M  CHG  1  14   1
M  END
$$$$
