
     RDKit          3D

 10 10  0  0  0  0  0  0  0  0999 V2000
  150.7431  154.2358  147.0821 O   0  0  0  0  0  0  0  0  0  0  0  0
  151.5229  153.1094  147.2385 C   0  0  0  0  0  0  0  0  0  0  0  0
  152.4784  153.1427  148.1120 C   0  0  0  0  0  0  0  0  0  0  0  0
  153.5322  153.8501  147.8372 C   0  0  0  0  0  0  0  0  0  0  0  0
  154.5137  153.3077  146.8822 C   0  0  0  0  0  0  0  0  0  0  0  0
  154.3044  153.7969  145.4967 C   0  0  0  0  0  0  0  0  0  0  0  0
  153.6205  153.1746  144.5489 C   0  0  0  0  0  0  0  0  0  0  0  0
  152.9459  151.8612  144.7420 C   0  0  0  0  0  0  0  0  0  0  0  0
  151.5190  152.0499  145.0411 N   0  0  0  0  0  0  0  0  0  0  0  0
  151.3047  151.8769  146.4481 C   0  0  0  0  0  0  0  0  0  0  0  0
  1  2  1  0
  2  3  2  0
  3  4  2  0
  4  5  1  0
  5  6  1  0
  6  7  2  0
  7  8  1  0
  8  9  1  0
  9 10  1  0
 10  2  1  0
M  END
$$$$
