
     RDKit          3D

 10 10  0  0  0  0  0  0  0  0999 V2000
  159.0736  149.3718  170.6673 O   0  0  0  0  0  0  0  0  0  0  0  0
  158.6037  150.6526  170.8672 C   0  0  0  0  0  0  0  0  0  0  0  0
  159.4594  151.6246  170.8736 C   0  0  0  0  0  0  0  0  0  0  0  0
  160.2457  151.7387  171.9007 C   0  0  0  0  0  0  0  0  0  0  0  0
  159.6976  152.3012  173.1469 C   0  0  0  0  0  0  0  0  0  0  0  0
  159.2448  151.2593  174.1021 C   0  0  0  0  0  0  0  0  0  0  0  0
  158.0081  150.8019  174.2229 C   0  0  0  0  0  0  0  0  0  0  0  0
  156.8649  151.2793  173.3968 C   0  0  0  0  0  0  0  0  0  0  0  0
  156.6259  150.3698  172.2669 N   0  0  0  0  0  0  0  0  0  0  0  0
  157.1678  150.9484  171.0723 C   0  0  0  0  0  0  0  0  0  0  0  0
  1  2  1  0
  2  3  2  0
  3  4  2  0
  4  5  1  0
  5  6  1  0
  6  7  2  0
  7  8  1  0
  8  9  1  0
  9 10  1  0
 10  2  1  0
M  END
$$$$
