
     RDKit          3D

 21 22  0  0  0  0  0  0  0  0999 V2000
   11.3677   26.7109   -4.6807 C   0  0  0  0  0  0  0  0  0  0  0  0
   11.3440   27.9707   -5.0386 C   0  0  0  0  0  0  0  0  0  0  0  0
   10.3962   28.5151   -5.9929 C   0  0  2  0  0  0  0  0  0  0  0  0
   11.0079   29.4689   -6.9761 C   0  0  0  0  0  0  0  0  0  0  0  0
   10.8222   29.0776   -8.2912 O   0  0  0  0  0  0  0  0  0  0  0  0
    9.2749   29.2042   -5.3078 N   0  0  0  0  0  4  0  0  0  0  0  0
    8.0273   28.5545   -5.6495 C   0  0  0  0  0  0  0  0  0  0  0  0
    7.3276   29.2302   -6.7651 C   0  0  0  0  0  0  0  0  0  0  0  0
    7.7766   29.1352   -8.0674 C   0  0  0  0  0  0  0  0  0  0  0  0
    7.1311   29.7433   -9.1235 C   0  0  0  0  0  0  0  0  0  0  0  0
    7.5707   29.6378  -10.3188 O   0  0  0  0  0  0  0  0  0  0  0  0
    6.0477   30.4353   -8.8560 O   0  0  0  0  0  0  0  0  0  0  0  0
    5.5557   30.5716   -7.6322 C   0  0  0  0  0  0  0  0  0  0  0  0
    4.4126   31.3132   -7.4186 C   0  0  0  0  0  0  0  0  0  0  0  0
    3.8789   31.4744   -6.1516 C   0  0  0  0  0  0  0  0  0  0  0  0
    2.7226   32.2245   -5.9391 O   0  0  0  0  0  0  0  0  0  0  0  0
    4.5007   30.8812   -5.0732 C   0  0  0  0  0  0  0  0  0  0  0  0
    3.9115   31.0805   -3.7122 C   0  0  0  0  0  0  0  0  0  0  0  0
    4.7190   32.1726   -2.9969 C   0  0  0  0  0  0  0  0  0  0  0  0
    5.6407   30.1410   -5.2940 C   0  0  0  0  0  0  0  0  0  0  0  0
    6.1851   29.9727   -6.5597 C   0  0  0  0  0  0  0  0  0  0  0  0
  1  2  2  0
  2  3  1  0
  3  4  1  6
  4  5  1  0
  3  6  1  0
  6  7  1  0
  7  8  1  0
  8  9  2  0
  9 10  1  0
 10 11  2  0
 10 12  1  0
 12 13  1  0
 13 14  2  0
 14 15  1  0
 15 16  1  0
 15 17  2  0
 17 18  1  0
 18 19  1  0
 17 20  1  0
 20 21  2  0
 21  8  1  0
 21 13  1  0
M  CHG  1   6   1
M  END
$$$$
