
     RDKit          3D

 20 20  0  0  0  0  0  0  0  0999 V2000
  157.7025  153.9545  149.0782 C   0  0  0  0  0  0  0  0  0  0  0  0
  156.4771  153.4284  148.4695 C   0  0  0  0  0  0  0  0  0  0  0  0
  156.5414  152.4724  147.4758 C   0  0  0  0  0  0  0  0  0  0  0  0
  155.3630  151.9763  146.8947 C   0  0  0  0  0  0  0  0  0  0  0  0
  154.1149  152.4071  147.2767 C   0  0  0  0  0  0  0  0  0  0  0  0
  152.9255  151.9767  146.7675 O   0  0  0  0  0  0  0  0  0  0  0  0
  152.5659  151.2356  145.6848 C   0  0  0  0  0  0  0  0  0  0  0  0
  151.4423  150.2535  145.8609 C   0  0  0  0  0  0  0  0  0  0  0  0
  151.8759  149.0066  145.1391 C   0  0  0  0  0  0  0  0  0  0  0  0
  152.8731  148.9929  144.4073 O   0  0  0  0  0  0  0  0  0  0  0  0
  151.0980  147.8671  145.3373 O   0  0  0  0  0  0  0  0  0  0  0  0
  151.4835  146.5670  144.9483 C   0  0  0  0  0  0  0  0  0  0  0  0
  150.4534  145.6096  145.5695 C   0  0  0  0  0  0  0  0  0  0  0  0
  150.8770  144.2276  145.0683 C   0  0  0  0  0  0  0  0  0  0  0  0
  151.9114  143.5918  145.9637 C   0  0  0  0  0  0  0  0  0  0  0  0
  152.1526  142.1988  145.3941 C   0  0  0  0  0  0  0  0  0  0  0  0
  153.2176  142.1750  144.5038 O   0  0  0  0  0  0  0  0  0  0  0  0
  154.0938  153.3813  148.2921 C   0  0  0  0  0  0  0  0  0  0  0  0
  152.7799  153.8750  148.7334 C   0  0  0  0  0  0  0  0  0  0  0  0
  155.2263  153.8825  148.8763 C   0  0  0  0  0  0  0  0  0  0  0  0
  1  2  1  0
  2  3  2  0
  3  4  1  0
  4  5  2  0
  5  6  1  0
  6  7  1  0
  7  8  1  0
  8  9  1  0
  9 10  2  0
  9 11  1  0
 11 12  1  0
 12 13  1  0
 13 14  1  0
 14 15  1  0
 15 16  1  0
 16 17  1  0
  5 18  1  0
 18 19  1  0
 18 20  2  0
 20  2  1  0
M  END
$$$$
