
     RDKit          3D

 27 30  0  0  0  0  0  0  0  0999 V2000
   -3.0039   51.3701   14.1353 C   0  0  0  0  0  0  0  0  0  0  0  0
   -4.0150   50.8804   13.1232 C   0  0  0  0  0  0  0  0  0  0  0  0
   -5.4086   51.3408   13.4903 C   0  0  2  0  0  0  0  0  0  0  0  0
   -6.4078   50.4808   12.7751 C   0  0  0  0  0  0  0  0  0  0  0  0
   -5.5167   52.7672   13.1421 C   0  0  0  0  0  0  0  0  0  0  0  0
   -5.9036   53.6545   14.1227 C   0  0  0  0  0  0  0  0  0  0  0  0
   -6.0114   54.9936   13.8196 C   0  0  0  0  0  0  0  0  0  0  0  0
   -5.7399   55.4800   12.5467 C   0  0  0  0  0  0  0  0  0  0  0  0
   -5.3529   54.5935   11.5656 C   0  0  0  0  0  0  0  0  0  0  0  0
   -5.0796   55.0927   10.2775 N   0  0  0  0  0  0  0  0  0  0  0  0
   -3.4988   54.9332    9.6381 S   0  0  0  0  0  6  0  0  0  0  0  0
   -3.1155   53.4913    9.6623 O   0  0  0  0  0  0  0  0  0  0  0  0
   -3.4471   55.3574    8.1836 O   0  0  0  0  0  0  0  0  0  0  0  0
   -2.3297   55.8612   10.5806 C   0  0  0  0  0  0  0  0  0  0  0  0
   -1.2413   55.2485   11.1617 C   0  0  0  0  0  0  0  0  0  0  0  0
   -0.3309   56.0147   11.9048 C   0  0  0  0  0  0  0  0  0  0  0  0
   -0.5275   57.3632   12.0487 C   0  0  0  0  0  0  0  0  0  0  0  0
   -1.5829   57.9971   11.4922 C   0  0  0  0  0  0  0  0  0  0  0  0
   -2.4940   57.2224   10.7475 C   0  0  0  0  0  0  0  0  0  0  0  0
   -1.7430   59.4555   11.6535 C   0  0  0  0  0  0  0  0  0  0  0  0
   -1.0734   59.8953   12.9280 C   0  0  0  0  0  0  0  0  0  0  0  0
    0.3017   59.3829   13.0579 C   0  0  0  0  0  0  0  0  0  0  0  0
    1.2439   60.1276   13.3305 O   0  0  0  0  0  0  0  0  0  0  0  0
    0.4713   57.9796   12.8500 N   0  0  0  0  0  0  0  0  0  0  0  0
    1.4310   56.9781   13.2526 C   0  0  0  0  0  0  0  0  0  0  0  0
    0.9096   55.7009   12.6444 C   0  0  0  0  0  0  0  0  0  0  0  0
   -5.2488   53.2588   11.8801 C   0  0  0  0  0  0  0  0  0  0  0  0
  1  2  1  0
  2  3  1  0
  3  4  1  6
  3  5  1  0
  5  6  2  0
  6  7  1  0
  7  8  2  0
  8  9  1  0
  9 10  1  0
 10 11  1  0
 11 12  2  0
 11 13  2  0
 11 14  1  0
 14 15  2  0
 15 16  1  0
 16 17  2  0
 17 18  1  0
 18 19  2  0
 18 20  1  0
 20 21  1  0
 21 22  1  0
 22 23  2  0
 22 24  1  0
 24 25  1  0
 25 26  1  0
  9 27  2  0
 27  5  1  0
 19 14  1  0
 26 16  1  0
 24 17  1  0
M  END
$$$$
