
     RDKit          3D

 21 22  0  0  0  0  0  0  0  0999 V2000
 -235.6280   78.7599  -42.7266 C   0  0  0  0  0  0  0  0  0  0  0  0
 -236.8542   79.1719  -43.2456 O   0  0  0  0  0  0  0  0  0  0  0  0
 -237.7150   78.0182  -43.4013 C   0  0  1  0  0  0  0  0  0  0  0  0
 -238.1474   78.1894  -44.8697 C   0  0  0  0  0  0  0  0  0  0  0  0
 -236.8259   76.8631  -43.2252 C   0  0  0  0  0  0  0  0  0  0  0  0
 -237.2666   75.5479  -42.7845 C   0  0  0  0  0  0  0  0  0  0  0  0
 -238.4347   74.9164  -43.2872 N   0  0  0  0  0  0  0  0  0  0  0  0
 -238.8613   73.5918  -43.0759 C   0  0  0  0  0  0  0  0  0  0  0  0
 -238.3562   72.7484  -43.9168 O   0  0  0  0  0  0  0  0  0  0  0  0
 -239.7684   73.0882  -42.0597 C   0  0  0  0  0  0  0  0  0  0  0  0
 -240.3465   73.9640  -41.1409 C   0  0  0  0  0  0  0  0  0  0  0  0
 -241.1876   73.5362  -40.1887 N   0  0  0  0  0  0  0  0  0  0  0  0
 -241.5350   72.2426  -40.0474 C   0  0  0  0  0  0  0  0  0  0  0  0
 -242.3892   71.7956  -39.0831 C   0  0  0  0  0  0  0  0  0  0  0  0
 -242.7422   70.4741  -38.9412 C   0  0  0  0  0  0  0  0  0  0  0  0
 -242.1812   69.5888  -39.8409 C   0  0  0  0  0  0  0  0  0  0  0  0
 -242.5012   68.1217  -39.7730 C   0  0  0  0  0  0  0  0  0  0  0  0
 -241.3169   70.0267  -40.8199 C   0  0  0  0  0  0  0  0  0  0  0  0
 -240.9810   71.3616  -40.9373 C   0  0  0  0  0  0  0  0  0  0  0  0
 -240.0981   71.7745  -41.9452 C   0  0  0  0  0  0  0  0  0  0  0  0
 -239.6703   70.8760  -42.6818 O   0  0  0  0  0  0  0  0  0  0  0  0
  1  2  1  0
  2  3  1  0
  3  4  1  6
  3  5  1  0
  5  6  1  0
  6  7  1  0
  7  8  1  0
  8  9  2  0
  8 10  1  0
 10 11  2  0
 11 12  1  0
 12 13  1  0
 13 14  2  0
 14 15  1  0
 15 16  2  0
 16 17  1  0
 16 18  1  0
 18 19  2  0
 19 20  1  0
 20 21  2  0
 20 10  1  0
 19 13  1  0
M  END
$$$$
