
     RDKit          3D

 33 36  0  0  0  0  0  0  0  0999 V2000
   44.6144   37.0732   25.9876 C   0  0  0  0  0  0  0  0  0  0  0  0
   44.3629   38.3684   26.3742 O   0  0  0  0  0  0  0  0  0  0  0  0
   43.0234   38.5352   26.6457 C   0  0  0  0  0  0  0  0  0  0  0  0
   42.6544   39.9577   27.0167 C   0  0  0  0  0  0  0  0  0  0  0  0
   43.4091   40.3924   28.1820 N   0  0  0  0  0  0  0  0  0  0  0  0
   42.8042   41.0281   29.2877 C   0  0  0  0  0  0  0  0  0  0  0  0
   41.6847   41.5750   29.1314 O   0  0  0  0  0  0  0  0  0  0  0  0
   43.4460   41.0630   30.5959 C   0  0  0  0  0  0  0  0  0  0  0  0
   43.0602   41.8404   31.6903 C   0  0  0  0  0  0  0  0  0  0  0  0
   41.9637   42.7428   31.7217 N   0  0  0  0  0  0  0  0  0  0  0  0
   43.8713   41.6238   32.7291 N   0  0  0  0  0  0  0  0  0  0  0  0
   43.8076   42.2291   34.0336 C   0  0  0  0  0  0  0  0  0  0  0  0
   42.5539   41.7426   34.7392 C   0  0  0  0  0  0  0  0  0  0  0  0
   42.8785   40.4152   35.3198 C   0  0  0  0  0  0  0  0  0  0  0  0
   44.1791   40.0653   35.6049 C   0  0  0  0  0  0  0  0  0  0  0  0
   44.4332   38.8163   36.1457 C   0  0  0  0  0  0  0  0  0  0  0  0
   43.3933   37.9409   36.3925 C   0  0  0  0  0  0  0  0  0  0  0  0
   43.6222   36.6829   36.9342 O   0  0  0  0  0  0  0  0  0  0  0  0
   44.7785   36.4761   37.6938 C   0  0  0  0  0  0  0  0  0  0  0  0
   42.0793   38.2667   36.1159 C   0  0  0  0  0  0  0  0  0  0  0  0
   41.0321   37.3866   36.3637 O   0  0  0  0  0  0  0  0  0  0  0  0
   39.7335   37.7820   35.9624 C   0  0  0  0  0  0  0  0  0  0  0  0
   41.8627   39.5193   35.5776 C   0  0  0  0  0  0  0  0  0  0  0  0
   44.7744   40.7244   32.3355 C   0  0  0  0  0  0  0  0  0  0  0  0
   45.8195   40.1512   32.9817 N   0  0  0  0  0  0  0  0  0  0  0  0
   46.6028   39.2543   32.3652 C   0  0  0  0  0  0  0  0  0  0  0  0
   47.6607   38.7082   33.0993 C   0  0  0  0  0  0  0  0  0  0  0  0
   48.4874   37.7831   32.4992 C   0  0  0  0  0  0  0  0  0  0  0  0
   48.2597   37.4129   31.1924 C   0  0  0  0  0  0  0  0  0  0  0  0
   47.2167   37.9496   30.4643 C   0  0  0  0  0  0  0  0  0  0  0  0
   46.3829   38.8762   31.0545 C   0  0  0  0  0  0  0  0  0  0  0  0
   45.3464   39.4447   30.4137 N   0  0  0  0  0  0  0  0  0  0  0  0
   44.5476   40.3529   31.0273 C   0  0  0  0  0  0  0  0  0  0  0  0
  1  2  1  0
  2  3  1  0
  3  4  1  0
  4  5  1  0
  5  6  1  0
  6  7  2  0
  6  8  1  0
  8  9  2  0
  9 10  1  0
  9 11  1  0
 11 12  1  0
 12 13  1  0
 13 14  1  0
 14 15  2  0
 15 16  1  0
 16 17  2  0
 17 18  1  0
 18 19  1  0
 17 20  1  0
 20 21  1  0
 21 22  1  0
 20 23  2  0
 11 24  1  0
 24 25  2  0
 25 26  1  0
 26 27  2  0
 27 28  1  0
 28 29  2  0
 29 30  1  0
 30 31  2  0
 31 32  1  0
 32 33  2  0
 33  8  1  0
 23 14  1  0
 33 24  1  0
 31 26  1  0
M  END
$$$$
