
     RDKit          3D

 19 19  0  0  0  0  0  0  0  0999 V2000
  153.5484  154.3426  153.2634 C   0  0  0  0  0  0  0  0  0  0  0  0
  152.1171  154.3858  152.9176 C   0  0  0  0  0  0  0  0  0  0  0  0
  151.6480  154.2485  151.2471 Cl  0  0  0  0  0  0  0  0  0  0  0  0
  151.2020  154.5243  153.8387 C   0  0  0  0  0  0  0  0  0  0  0  0
  151.4802  154.4812  155.2697 C   0  0  0  0  0  0  0  0  0  0  0  0
  150.5983  154.8937  156.1740 C   0  0  0  0  0  0  0  0  0  0  0  0
  150.7436  154.5782  157.5493 N   0  0  0  0  0  0  0  0  0  0  0  0
  149.8203  155.0278  158.5398 C   0  0  0  0  0  0  0  0  0  0  0  0
  148.4721  155.1970  158.0461 N   0  0  0  0  0  0  0  0  0  0  0  0
  147.7180  156.5593  158.7749 S   0  0  0  0  0  1  0  0  0  0  0  0
  149.9110  154.3067  159.8430 C   0  0  0  0  0  0  0  0  0  0  0  0
  149.3064  153.3037  160.4090 C   0  0  0  0  0  0  0  0  0  0  0  0
  149.6140  152.9371  161.7083 O   0  0  0  0  0  1  0  0  0  0  0  0
  150.9970  155.2424  160.2016 C   0  0  0  0  0  0  0  0  0  0  0  0
  150.2489  156.2592  159.3489 C   0  0  0  0  0  0  0  0  0  0  0  0
  151.0401  157.1567  158.5843 N   0  0  0  0  0  0  0  0  0  0  0  0
  151.4077  158.3584  159.3090 C   0  0  0  0  0  0  0  0  0  0  0  0
  152.5730  159.0692  158.6904 C   0  0  0  0  0  0  0  0  0  0  0  0
  152.8973  160.1708  159.4781 O   0  0  0  0  0  0  0  0  0  0  0  0
  1  2  1  0
  2  3  1  0
  2  4  2  3
  4  5  1  0
  5  6  2  3
  6  7  1  0
  7  8  1  0
  8  9  1  0
  9 10  1  0
  8 11  1  0
 11 12  2  3
 12 13  1  0
 11 14  1  0
 14 15  1  0
 15 16  1  0
 16 17  1  0
 17 18  1  0
 18 19  1  0
 15  8  1  0
M  CHG  2  10  -1  13  -1
M  END
$$$$
