
     RDKit          3D

 26 28  0  0  0  0  0  0  0  0999 V2000
   17.8612   18.2439   27.1260 C   0  0  0  0  0  0  0  0  0  0  0  0
   18.1971   19.4622   26.3042 C   0  0  0  0  0  0  0  0  0  0  0  0
   18.9618   20.4831   27.1200 C   0  0  0  0  0  0  0  0  0  0  0  0
   20.3883   20.4268   26.8313 N   0  0  0  0  0  0  0  0  0  0  0  0
   21.1164   21.4433   26.3155 C   0  0  0  0  0  0  0  0  0  0  0  0
   20.8186   22.7340   25.9332 C   0  0  0  0  0  0  0  0  0  0  0  0
   21.7538   23.6138   25.4288 C   0  0  0  0  0  0  0  0  0  0  0  0
   23.0674   23.2079   25.2881 C   0  0  0  0  0  0  0  0  0  0  0  0
   23.3703   21.9192   25.6684 C   0  0  0  0  0  0  0  0  0  0  0  0
   22.4466   21.0307   26.1722 C   0  0  0  0  0  0  0  0  0  0  0  0
   22.4882   19.7679   26.6064 N   0  0  0  0  0  0  0  0  0  0  0  0
   23.6102   18.8946   26.6476 C   0  0  0  0  0  0  0  0  0  0  0  0
   24.4752   18.9727   27.8621 C   0  0  1  0  0  0  0  0  0  0  0  0
   24.9968   17.7275   28.2107 O   0  0  0  0  0  0  0  0  0  0  0  0
   25.4848   20.0738   27.8838 C   0  0  0  0  0  0  0  0  0  0  0  0
   26.7875   19.5656   27.6939 O   0  0  0  0  0  0  0  0  0  0  0  0
   27.6184   19.9351   26.6696 C   0  0  0  0  0  0  0  0  0  0  0  0
   28.3257   21.1179   26.6475 C   0  0  0  0  0  0  0  0  0  0  0  0
   29.1520   21.4459   25.5902 C   0  0  0  0  0  0  0  0  0  0  0  0
   29.3037   20.6020   24.5112 C   0  0  0  0  0  0  0  0  0  0  0  0
   30.3512   21.0045   23.1580 Cl  0  0  0  0  0  0  0  0  0  0  0  0
   28.5871   19.4219   24.5513 C   0  0  0  0  0  0  0  0  0  0  0  0
   27.7586   19.0793   25.5980 C   0  0  0  0  0  0  0  0  0  0  0  0
   26.9126   17.5478   25.5100 Cl  0  0  0  0  0  0  0  0  0  0  0  0
   21.2359   19.4090   27.0059 C   0  0  0  0  0  0  0  0  0  0  0  0
   20.8745   18.2781   27.4931 N   0  0  0  0  0  0  0  0  0  0  0  0
  1  2  1  0
  2  3  1  0
  3  4  1  0
  4  5  1  0
  5  6  2  0
  6  7  1  0
  7  8  2  0
  8  9  1  0
  9 10  2  0
 10 11  1  0
 11 12  1  0
 12 13  1  0
 13 14  1  6
 13 15  1  0
 15 16  1  0
 16 17  1  0
 17 18  2  0
 18 19  1  0
 19 20  2  0
 20 21  1  0
 20 22  1  0
 22 23  2  0
 23 24  1  0
 11 25  1  0
 25 26  2  0
 25  4  1  0
 10  5  1  0
 23 17  1  0
M  END
$$$$
