
     RDKit          3D

 26 28  0  0  0  0  0  0  0  0999 V2000
   28.0678   21.0112   25.7962 C   0  0  0  0  0  0  0  0  0  0  0  0
   28.1914   20.4008   24.4234 C   0  0  0  0  0  0  0  0  0  0  0  0
   29.0714   19.1688   24.4457 C   0  0  0  0  0  0  0  0  0  0  0  0
   30.4760   19.5270   24.5871 N   0  0  0  0  0  0  0  0  0  0  0  0
   31.2483   19.2317   25.6575 C   0  0  0  0  0  0  0  0  0  0  0  0
   31.0231   18.5662   26.8437 C   0  0  0  0  0  0  0  0  0  0  0  0
   31.9928   18.3760   27.8063 C   0  0  0  0  0  0  0  0  0  0  0  0
   33.2676   18.8676   27.5980 C   0  0  0  0  0  0  0  0  0  0  0  0
   33.4979   19.5336   26.4147 C   0  0  0  0  0  0  0  0  0  0  0  0
   32.5390   19.7313   25.4462 C   0  0  0  0  0  0  0  0  0  0  0  0
   32.5132   20.3199   24.2472 N   0  0  0  0  0  0  0  0  0  0  0  0
   33.5730   20.9978   23.5836 C   0  0  0  0  0  0  0  0  0  0  0  0
   34.4228   20.1788   22.6689 C   0  0  1  0  0  0  0  0  0  0  0  0
   35.0877   20.9673   21.7307 O   0  0  0  0  0  0  0  0  0  0  0  0
   35.2953   19.1548   23.3187 C   0  0  0  0  0  0  0  0  0  0  0  0
   36.5345   19.7155   23.6948 O   0  0  0  0  0  0  0  0  0  0  0  0
   37.5481   19.0158   24.2939 C   0  0  0  0  0  0  0  0  0  0  0  0
   37.3448   17.9285   25.1162 C   0  0  0  0  0  0  0  0  0  0  0  0
   38.4014   17.2550   25.6979 C   0  0  0  0  0  0  0  0  0  0  0  0
   39.7055   17.6433   25.4795 C   0  0  0  0  0  0  0  0  0  0  0  0
   41.0611   16.7971   26.2121 Cl  0  0  0  0  0  0  0  0  0  0  0  0
   39.8893   18.7346   24.6530 C   0  0  0  0  0  0  0  0  0  0  0  0
   38.8467   19.4177   24.0648 C   0  0  0  0  0  0  0  0  0  0  0  0
   39.2335   20.7843   23.0393 Cl  0  0  0  0  0  0  0  0  0  0  0  0
   31.2586   20.1908   23.7316 C   0  0  0  0  0  0  0  0  0  0  0  0
   30.8426   20.6165   22.5947 N   0  0  0  0  0  0  0  0  0  0  0  0
  1  2  1  0
  2  3  1  0
  3  4  1  0
  4  5  1  0
  5  6  2  0
  6  7  1  0
  7  8  2  0
  8  9  1  0
  9 10  2  0
 10 11  1  0
 11 12  1  0
 12 13  1  0
 13 14  1  1
 13 15  1  0
 15 16  1  0
 16 17  1  0
 17 18  2  0
 18 19  1  0
 19 20  2  0
 20 21  1  0
 20 22  1  0
 22 23  2  0
 23 24  1  0
 11 25  1  0
 25 26  2  0
 25  4  1  0
 10  5  1  0
 23 17  1  0
M  END
$$$$
