
     RDKit          3D

 26 28  0  0  0  0  0  0  0  0999 V2000
   17.6661   47.1783   30.8864 C   0  0  0  0  0  0  0  0  0  0  0  0
   17.1758   47.0136   32.3024 C   0  0  0  0  0  0  0  0  0  0  0  0
   16.6161   45.6258   32.5335 C   0  0  0  0  0  0  0  0  0  0  0  0
   15.1877   45.6736   32.8137 N   0  0  0  0  0  0  0  0  0  0  0  0
   14.6401   46.0458   33.9931 C   0  0  0  0  0  0  0  0  0  0  0  0
   15.1613   46.4677   35.1977 C   0  0  0  0  0  0  0  0  0  0  0  0
   14.3850   46.8103   36.2853 C   0  0  0  0  0  0  0  0  0  0  0  0
   13.0081   46.7367   36.1919 C   0  0  0  0  0  0  0  0  0  0  0  0
   12.4820   46.3155   34.9907 C   0  0  0  0  0  0  0  0  0  0  0  0
   13.2454   45.9697   33.8979 C   0  0  0  0  0  0  0  0  0  0  0  0
   12.9844   45.5500   32.6567 N   0  0  0  0  0  0  0  0  0  0  0  0
   11.7143   45.2933   32.0700 C   0  0  0  0  0  0  0  0  0  0  0  0
   10.8354   44.3151   32.7772 C   0  0  1  0  0  0  0  0  0  0  0  0
    9.6718   44.0459   32.0578 O   0  0  0  0  0  0  0  0  0  0  0  0
   11.5061   43.0924   33.3132 C   0  0  0  0  0  0  0  0  0  0  0  0
   11.7865   42.1771   32.2764 O   0  0  0  0  0  0  0  0  0  0  0  0
   13.0412   41.7245   31.9649 C   0  0  0  0  0  0  0  0  0  0  0  0
   13.5858   41.7903   30.7005 C   0  0  0  0  0  0  0  0  0  0  0  0
   14.8574   41.3196   30.4362 C   0  0  0  0  0  0  0  0  0  0  0  0
   15.6358   40.7635   31.4281 C   0  0  0  0  0  0  0  0  0  0  0  0
   17.2557   40.1601   31.1083 Cl  0  0  0  0  0  0  0  0  0  0  0  0
   15.0732   40.7063   32.6883 C   0  0  0  0  0  0  0  0  0  0  0  0
   13.8065   41.1711   32.9691 C   0  0  0  0  0  0  0  0  0  0  0  0
   13.2256   41.0316   34.6159 Cl  0  0  0  0  0  0  0  0  0  0  0  0
   14.1677   45.3738   32.0045 C   0  0  0  0  0  0  0  0  0  0  0  0
   14.3317   44.9886   30.7914 N   0  0  0  0  0  0  0  0  0  0  0  0
  1  2  1  0
  2  3  1  0
  3  4  1  0
  4  5  1  0
  5  6  2  0
  6  7  1  0
  7  8  2  0
  8  9  1  0
  9 10  2  0
 10 11  1  0
 11 12  1  0
 12 13  1  0
 13 14  1  6
 13 15  1  0
 15 16  1  0
 16 17  1  0
 17 18  2  0
 18 19  1  0
 19 20  2  0
 20 21  1  0
 20 22  1  0
 22 23  2  0
 23 24  1  0
 11 25  1  0
 25 26  2  0
 25  4  1  0
 10  5  1  0
 23 17  1  0
M  END
$$$$
