
     RDKit          3D

 17 18  0  0  0  0  0  0  0  0999 V2000
   10.9481    6.9807  -29.8793 C   0  0  0  0  0  0  0  0  0  0  0  0
   12.3442    6.6742  -29.4613 C   0  0  0  0  0  0  0  0  0  0  0  0
   13.0133    7.2830  -28.2780 C   0  0  0  0  0  0  0  0  0  0  0  0
   13.0469    5.8046  -30.1814 C   0  0  0  0  0  0  0  0  0  0  0  0
   12.8236    4.3615  -30.2824 C   0  0  0  0  0  0  0  0  0  0  0  0
   13.6804    3.7289  -31.2218 O   0  0  0  0  0  0  0  0  0  0  0  0
   13.5961    2.3451  -31.3267 C   0  0  0  0  0  0  0  0  0  0  0  0
   14.6305    1.4388  -31.1590 C   0  0  0  0  0  0  0  0  0  0  0  0
   14.3836    0.0873  -31.2971 C   0  0  0  0  0  0  0  0  0  0  0  0
   13.1418   -0.4048  -31.5972 C   0  0  0  0  0  0  0  0  0  0  0  0
   12.9811   -1.7575  -31.7167 C   0  0  0  0  0  0  0  0  0  0  0  0
   11.6908   -2.1854  -32.0234 C   0  0  0  0  0  0  0  0  0  0  0  0
   10.6946   -1.2302  -32.1797 C   0  0  0  0  0  0  0  0  0  0  0  0
    9.5086   -1.5444  -32.4567 O   0  0  0  0  0  0  0  0  0  0  0  0
   10.9175    0.0705  -32.0500 O   0  0  0  0  0  0  0  0  0  0  0  0
   12.1225    0.5108  -31.7611 C   0  0  0  0  0  0  0  0  0  0  0  0
   12.3250    1.8703  -31.6321 C   0  0  0  0  0  0  0  0  0  0  0  0
  1  2  1  0
  2  3  1  0
  2  4  2  3
  4  5  1  0
  5  6  1  0
  6  7  1  0
  7  8  2  0
  8  9  1  0
  9 10  2  0
 10 11  1  0
 11 12  2  0
 12 13  1  0
 13 14  2  0
 13 15  1  0
 15 16  1  0
 16 17  2  0
 17  7  1  0
 16 10  1  0
M  END
$$$$
