
     RDKit          3D

 27 29  0  0  0  0  0  0  0  0999 V2000
   20.2812  -25.7130  -30.0121 C   0  0  0  0  0  0  0  0  0  0  0  0
   19.3769  -25.1792  -28.9266 C   0  0  0  0  0  0  0  0  0  0  0  0
   19.9844  -23.9698  -28.2421 C   0  0  0  0  0  0  0  0  0  0  0  0
   19.1313  -23.4713  -27.1217 C   0  0  0  0  0  0  0  0  0  0  0  0
   19.9078  -23.3908  -25.8115 C   0  0  0  0  0  0  0  0  0  0  0  0
   18.9880  -23.2565  -24.6917 N   0  0  0  0  0  0  0  0  0  0  0  0
   17.9103  -24.1789  -24.5830 C   0  0  0  0  0  0  0  0  0  0  0  0
   16.7078  -23.9041  -24.2203 C   0  0  0  0  0  0  0  0  0  0  0  0
   16.2373  -22.7377  -24.0790 N   0  0  0  0  0  0  0  0  0  0  0  0
   14.8953  -22.4867  -23.7218 C   0  0  0  0  0  0  0  0  0  0  0  0
   14.3697  -23.0779  -22.6737 C   0  0  0  0  0  0  0  0  0  0  0  0
   15.0954  -24.0205  -21.8006 C   0  0  0  0  0  0  0  0  0  0  0  0
   14.4214  -25.0693  -21.3737 C   0  0  0  0  0  0  0  0  0  0  0  0
   12.7337  -25.3475  -21.7772 Cl  0  0  0  0  0  0  0  0  0  0  0  0
   15.0330  -26.0691  -20.5169 N   0  0  0  0  0  0  0  0  0  0  0  0
   14.2919  -27.1912  -20.0725 C   0  0  0  0  0  0  0  0  0  0  0  0
   15.0583  -28.1003  -19.2270 C   0  0  0  0  0  0  0  0  0  0  0  0
   16.3151  -27.8720  -18.9209 C   0  0  0  0  0  0  0  0  0  0  0  0
   17.0495  -26.7116  -19.3879 C   0  0  0  0  0  0  0  0  0  0  0  0
   16.3883  -25.8572  -20.1626 C   0  0  0  0  0  0  0  0  0  0  0  0
   17.0643  -24.6477  -20.6872 C   0  0  0  0  0  0  0  0  0  0  0  0
   16.4517  -23.8011  -21.4495 N   0  0  0  0  0  0  0  0  0  0  0  0
   18.4171  -24.4293  -20.3048 N   0  0  0  0  0  0  0  0  0  0  0  0
   19.4031  -23.7887  -21.1800 C   0  0  0  0  0  0  0  0  0  0  0  0
   19.0986  -22.3463  -21.4579 C   0  0  0  0  0  0  0  0  0  0  0  0
   18.4101  -22.1917  -22.6601 O   0  0  0  0  0  0  0  0  0  0  0  0
   19.2417  -22.1826  -23.7535 C   0  0  0  0  0  0  0  0  0  0  0  0
  1  2  1  0
  2  3  1  0
  3  4  1  0
  4  5  1  0
  5  6  1  0
  6  7  1  0
  7  8  2  0
  8  9  2  0
  9 10  1  0
 10 11  2  0
 11 12  1  0
 12 13  2  0
 13 14  1  0
 13 15  1  0
 15 16  1  0
 16 17  1  0
 17 18  2  0
 18 19  1  0
 19 20  2  0
 20 21  1  0
 21 22  2  0
 21 23  1  0
 23 24  1  0
 24 25  1  0
 25 26  1  0
 26 27  1  0
 27  6  1  0
 22 12  1  0
 20 15  1  0
M  END
$$$$
