
     RDKit          3D

 14 15  0  0  0  0  0  0  0  0999 V2000
   60.0482   38.6421    2.2288 C   0  0  0  0  0  0  0  0  0  0  0  0
   58.9568   37.7369    2.3222 O   0  0  0  0  0  0  0  0  0  0  0  0
   58.0252   37.8429    3.3443 C   0  0  0  0  0  0  0  0  0  0  0  0
   58.0993   38.8175    4.1084 O   0  0  0  0  0  0  0  0  0  0  0  0
   57.0042   36.8256    3.4897 C   0  0  0  0  0  0  0  0  0  0  0  0
   56.9094   35.7837    2.5909 C   0  0  0  0  0  0  0  0  0  0  0  0
   55.9572   34.8146    2.7069 C   0  0  0  0  0  0  0  0  0  0  0  0
   55.0368   34.8309    3.7366 C   0  0  0  0  0  0  0  0  0  0  0  0
   55.1349   35.8739    4.6326 C   0  0  0  0  0  0  0  0  0  0  0  0
   56.0944   36.8605    4.5255 C   0  0  0  0  0  0  0  0  0  0  0  0
   56.1459   37.9029    5.4724 O   0  0  0  0  0  0  0  0  0  0  0  0
   54.2306   33.7236    3.5586 O   0  0  0  0  0  0  0  0  0  0  0  0
   54.8431   32.8423    2.6179 C   0  0  0  0  0  0  0  0  0  0  0  0
   55.7269   33.6982    1.8859 O   0  0  0  0  0  0  0  0  0  0  0  0
  1  2  1  0
  2  3  1  0
  3  4  2  0
  3  5  1  0
  5  6  2  0
  6  7  1  0
  7  8  2  0
  8  9  1  0
  9 10  2  0
 10 11  1  0
  8 12  1  0
 12 13  1  0
 13 14  1  0
 10  5  1  0
 14  7  1  0
M  END
$$$$
