
     RDKit          3D

 12 11  0  0  0  0  0  0  0  0999 V2000
    1.7042   -3.5925  -58.2667 C   0  0  0  0  0  0  0  0  0  0  0  0
    1.3434   -4.6272  -57.2696 C   0  0  0  0  0  0  0  0  0  0  0  0
    0.0993   -4.8554  -56.9389 C   0  0  0  0  0  0  0  0  0  0  0  0
   -0.3198   -6.2213  -56.5614 C   0  0  0  0  0  0  0  0  0  0  0  0
   -0.8239   -6.9876  -57.7424 C   0  0  0  0  0  0  0  0  0  0  0  0
   -0.1684   -7.9566  -58.1747 O   0  0  0  0  0  0  0  0  0  0  0  0
   -2.0305   -6.6486  -58.3931 N   0  0  0  0  0  0  0  0  0  0  0  0
   -2.5328   -7.0829  -59.6385 C   0  0  0  0  0  0  0  0  0  0  0  0
   -2.1538   -6.3811  -60.8784 C   0  0  0  0  0  0  0  0  0  0  0  0
   -1.3820   -7.0950  -61.9193 C   0  0  0  0  0  0  0  0  0  0  0  0
   -1.2924   -5.1750  -60.4345 C   0  0  0  0  0  0  0  0  0  0  0  0
   -1.0226   -4.2606  -61.6113 C   0  0  0  0  0  0  0  0  0  0  0  0
  1  2  1  0
  2  3  2  3
  3  4  1  0
  4  5  1  0
  5  6  2  0
  5  7  1  0
  7  8  1  0
  8  9  1  0
  9 10  1  0
  9 11  1  0
 11 12  1  0
M  END
$$$$
