
     RDKit          3D

 22 23  0  0  0  0  0  0  0  0999 V2000
  -11.7720  -15.8815   -2.2831 C   0  0  0  0  0  0  0  0  0  0  0  0
  -11.5328  -15.4559   -3.7299 C   0  0  0  0  0  0  0  0  0  0  0  0
  -10.6118  -16.3906   -4.3315 C   0  0  0  0  0  0  0  0  0  0  0  0
   -9.8237  -17.1608   -4.8326 N   0  0  0  0  0  0  0  0  0  0  0  0
  -10.9990  -14.1589   -3.6835 O   0  0  0  0  0  0  0  0  0  0  0  0
  -11.7153  -12.9773   -3.8007 C   0  0  0  0  0  0  0  0  0  0  0  0
  -13.0585  -12.8682   -3.5224 C   0  0  0  0  0  0  0  0  0  0  0  0
  -13.7571  -11.6734   -3.6459 C   0  0  0  0  0  0  0  0  0  0  0  0
  -13.1177  -10.5316   -4.0598 C   0  0  0  0  0  0  0  0  0  0  0  0
  -13.8770   -9.2399   -4.2224 C   0  0  0  0  0  0  0  0  0  0  0  0
  -14.5875   -8.9942   -3.0216 N   0  0  0  0  0  0  0  0  0  0  0  0
  -14.0641   -7.9962   -2.1555 C   0  0  0  0  0  0  0  0  0  0  0  0
  -13.8593   -8.4674   -0.7417 C   0  0  0  0  0  0  0  0  0  0  0  0
  -12.6200   -9.0113   -0.4919 O   0  0  0  0  0  0  0  0  0  0  0  0
  -14.3106   -7.4595    0.2609 C   0  0  0  0  0  0  0  0  0  0  0  0
  -13.4476   -6.6205    0.9123 C   0  0  0  0  0  0  0  0  0  0  0  0
  -13.9581   -5.6930    1.8292 C   0  0  0  0  0  0  0  0  0  0  0  0
  -15.2960   -5.5836    2.1081 C   0  0  0  0  0  0  0  0  0  0  0  0
  -16.1695   -6.4290    1.4522 C   0  0  0  0  0  0  0  0  0  0  0  0
  -15.6840   -7.3443    0.5506 C   0  0  0  0  0  0  0  0  0  0  0  0
  -11.7752  -10.6350   -4.3388 C   0  0  0  0  0  0  0  0  0  0  0  0
  -11.0725  -11.8082   -4.2216 C   0  0  0  0  0  0  0  0  0  0  0  0
  1  2  1  0
  2  3  1  0
  3  4  3  0
  2  5  1  0
  5  6  1  0
  6  7  2  0
  7  8  1  0
  8  9  2  0
  9 10  1  0
 10 11  1  0
 11 12  1  0
 12 13  1  0
 13 14  1  0
 13 15  1  0
 15 16  2  0
 16 17  1  0
 17 18  2  0
 18 19  1  0
 19 20  2  0
  9 21  1  0
 21 22  2  0
 22  6  1  0
 20 15  1  0
M  END
$$$$
