
     RDKit          3D

 23 25  0  0  0  0  0  0  0  0999 V2000
  171.8934  142.6022  159.9119 O   0  0  0  0  0  0  0  0  0  0  0  0
  170.7722  143.2442  159.4165 C   0  0  0  0  0  0  0  0  0  0  0  0
  169.7837  143.5038  160.5232 C   0  0  0  0  0  0  0  0  0  0  0  0
  168.4915  143.9214  159.9624 N   0  0  0  0  0  0  0  0  0  0  0  0
  167.6831  142.9739  159.3300 C   0  0  0  0  0  0  0  0  0  0  0  0
  168.1350  141.6974  159.1734 N   0  0  0  0  0  0  0  0  0  0  0  0
  167.3811  140.7770  158.5732 C   0  0  0  0  0  0  0  0  0  0  0  0
  168.0823  139.1439  158.4282 B   0  0  0  0  0  2  0  0  0  0  0  0
  168.9349  137.6186  158.2144 C   0  0  0  0  0  0  0  0  0  0  0  0
  168.5427  136.5203  158.9353 C   0  0  0  0  0  0  0  0  0  0  0  0
  169.2301  135.3131  158.7552 C   0  0  0  0  0  0  0  0  0  0  0  0
  170.2849  135.1951  157.8788 C   0  0  0  0  0  0  0  0  0  0  0  0
  171.0939  133.6599  157.7063 Cl  0  0  0  0  0  0  0  0  0  0  0  0
  170.6679  136.3034  157.1624 C   0  0  0  0  0  0  0  0  0  0  0  0
  171.9985  136.2117  156.0371 Cl  0  0  0  0  0  0  0  0  0  0  0  0
  170.0041  137.4948  157.3275 C   0  0  0  0  0  0  0  0  0  0  0  0
  166.1807  141.0950  158.1214 N   0  0  0  0  0  0  0  0  0  0  0  0
  165.6500  142.3383  158.2332 C   0  0  0  0  0  0  0  0  0  0  0  0
  164.3970  142.6220  157.7480 C   0  0  0  0  0  0  0  0  0  0  0  0
  163.8581  143.8829  157.8610 C   0  0  0  0  0  0  0  0  0  0  0  0
  164.6281  144.8404  158.4789 C   0  0  0  0  0  0  0  0  0  0  0  0
  165.8886  144.5496  158.9655 C   0  0  0  0  0  0  0  0  0  0  0  0
  166.4415  143.2904  158.8592 C   0  0  0  0  0  0  0  0  0  0  0  0
  1  2  1  0
  2  3  1  0
  3  4  1  0
  4  5  1  0
  5  6  2  0
  6  7  1  0
  7  8  1  0
  8  9  1  0
  9 10  2  0
 10 11  1  0
 11 12  2  0
 12 13  1  0
 12 14  1  0
 14 15  1  0
 14 16  2  0
  7 17  2  0
 17 18  1  0
 18 19  2  0
 19 20  1  0
 20 21  2  0
 21 22  1  0
 22 23  2  0
 23  5  1  0
 16  9  1  0
 23 18  1  0
M  CHG  1   8   1
M  END
$$$$
