
     RDKit          3D

 17 18  0  0  0  0  0  0  0  0999 V2000
    3.2981   30.6993   -1.0622 C   0  0  0  0  0  0  0  0  0  0  0  0
    2.9964   31.1235   -2.4708 C   0  0  0  0  0  0  0  0  0  0  0  0
    2.4032   32.3543   -2.7282 C   0  0  0  0  0  0  0  0  0  0  0  0
    2.1460   32.6996   -4.0445 C   0  0  0  0  0  0  0  0  0  0  0  0
    2.4804   31.8217   -5.0780 C   0  0  0  0  0  0  0  0  0  0  0  0
    2.2235   32.1710   -6.3646 F   0  0  0  0  0  0  0  0  0  0  0  0
    3.0685   30.6021   -4.8178 C   0  0  0  0  0  0  0  0  0  0  0  0
    3.4192   29.6857   -5.9064 C   0  0  0  0  0  0  0  0  0  0  0  0
    2.8262   28.3728   -5.7470 N   0  0  0  0  0  0  0  0  0  0  0  0
    2.2831   27.8833   -6.9984 C   0  0  2  0  0  0  0  0  0  0  0  0
    0.8898   28.4625   -7.1877 C   0  0  0  0  0  0  0  0  0  0  0  0
    0.5394   28.0963   -8.6386 C   0  0  0  0  0  0  0  0  0  0  0  0
    0.2564   26.6271   -8.5987 C   0  0  0  0  0  0  0  0  0  0  0  0
    1.2811   25.7750   -7.9635 C   0  0  0  0  0  0  0  0  0  0  0  0
    2.2949   26.3904   -7.1017 C   0  0  2  0  0  0  0  0  0  0  0  0
    2.1102   25.8998   -5.7846 O   0  0  0  0  0  0  0  0  0  0  0  0
    3.3205   30.2673   -3.5025 C   0  0  0  0  0  0  0  0  0  0  0  0
  1  2  1  0
  2  3  2  0
  3  4  1  0
  4  5  2  0
  5  6  1  0
  5  7  1  0
  7  8  1  0
  8  9  1  0
 10  9  1  1
 10 11  1  0
 11 12  1  0
 12 13  1  0
 13 14  1  0
 14 15  1  0
 15 16  1  1
  7 17  2  0
 17  2  1  0
 15 10  1  0
M  END
$$$$
