
     RDKit          3D

 17 18  0  0  0  0  0  0  0  0999 V2000
   -1.1045   -9.2403  -63.2573 C   0  0  0  0  0  0  0  0  0  0  0  0
   -0.8229   -7.9375  -62.5653 C   0  0  0  0  0  0  0  0  0  0  0  0
   -1.0990   -6.7281  -63.1931 C   0  0  0  0  0  0  0  0  0  0  0  0
   -0.8221   -5.5540  -62.5126 C   0  0  0  0  0  0  0  0  0  0  0  0
   -0.2786   -5.6002  -61.2269 C   0  0  0  0  0  0  0  0  0  0  0  0
   -0.0112   -4.4427  -60.5695 F   0  0  0  0  0  0  0  0  0  0  0  0
   -0.0064   -6.8021  -60.6085 C   0  0  0  0  0  0  0  0  0  0  0  0
    0.5619   -6.8445  -59.2582 C   0  0  0  0  0  0  0  0  0  0  0  0
    0.4494   -5.5778  -58.5627 N   0  0  0  0  0  0  0  0  0  0  0  0
    1.0559   -5.6419  -57.2479 C   0  0  2  0  0  0  0  0  0  0  0  0
   -0.0460   -5.6462  -56.1998 C   0  0  0  0  0  0  0  0  0  0  0  0
    0.6956   -5.9818  -54.8961 C   0  0  0  0  0  0  0  0  0  0  0  0
    1.4391   -4.7290  -54.5523 C   0  0  0  0  0  0  0  0  0  0  0  0
    2.2743   -4.1436  -55.6197 C   0  0  0  0  0  0  0  0  0  0  0  0
    2.0605   -4.5586  -57.0093 C   0  0  2  0  0  0  0  0  0  0  0  0
    1.6102   -3.4313  -57.7415 O   0  0  0  0  0  0  0  0  0  0  0  0
   -0.2860   -7.9665  -61.2952 C   0  0  0  0  0  0  0  0  0  0  0  0
  1  2  1  0
  2  3  2  0
  3  4  1  0
  4  5  2  0
  5  6  1  0
  5  7  1  0
  7  8  1  0
  8  9  1  0
 10  9  1  6
 10 11  1  0
 11 12  1  0
 12 13  1  0
 13 14  1  0
 14 15  1  0
 15 16  1  6
  7 17  2  0
 17  2  1  0
 15 10  1  0
M  END
$$$$
