
     RDKit          3D

 25 28  0  0  0  0  0  0  0  0999 V2000
   46.6423   38.9736   28.0982 C   0  0  0  0  0  0  0  0  0  0  0  0
   45.2033   39.3691   28.1313 C   0  0  0  0  0  0  0  0  0  0  0  0
   44.6270   40.0741   27.0939 C   0  0  0  0  0  0  0  0  0  0  0  0
   43.2970   40.4373   27.1283 C   0  0  0  0  0  0  0  0  0  0  0  0
   42.7313   41.1424   26.0850 O   0  0  0  0  0  0  0  0  0  0  0  0
   42.4814   40.1109   28.2046 C   0  0  0  0  0  0  0  0  0  0  0  0
   43.0367   39.4103   29.2462 C   0  0  0  0  0  0  0  0  0  0  0  0
   42.2830   39.0249   30.3624 N   0  0  0  0  0  0  0  0  0  0  0  0
   40.7832   39.6411   30.8515 S   0  0  0  0  0  6  0  0  0  0  0  0
   39.7221   38.6179   30.4427 O   0  0  0  0  0  0  0  0  0  0  0  0
   40.5227   40.9481   30.1449 O   0  0  0  0  0  0  0  0  0  0  0  0
   40.6268   39.9094   32.5462 C   0  0  0  0  0  0  0  0  0  0  0  0
   40.3302   38.8486   33.3771 C   0  0  0  0  0  0  0  0  0  0  0  0
   40.1927   39.0042   34.7433 C   0  0  0  0  0  0  0  0  0  0  0  0
   40.3607   40.2478   35.2462 C   0  0  0  0  0  0  0  0  0  0  0  0
   40.6561   41.3494   34.4920 C   0  0  0  0  0  0  0  0  0  0  0  0
   40.7868   41.1525   33.1165 C   0  0  0  0  0  0  0  0  0  0  0  0
   40.8364   42.6505   35.1301 C   0  0  0  0  0  0  0  0  0  0  0  0
   40.0664   42.7523   36.4205 C   0  0  0  0  0  0  0  0  0  0  0  0
   40.3142   41.5832   37.2873 C   0  0  0  0  0  0  0  0  0  0  0  0
   40.6218   41.6816   38.4800 O   0  0  0  0  0  0  0  0  0  0  0  0
   40.1773   40.3026   36.6638 N   0  0  0  0  0  0  0  0  0  0  0  0
   39.8914   38.9738   37.0952 C   0  0  0  0  0  0  0  0  0  0  0  0
   39.8847   38.0932   35.8935 C   0  0  0  0  0  0  0  0  0  0  0  0
   44.3955   39.0466   29.1964 C   0  0  0  0  0  0  0  0  0  0  0  0
  1  2  1  0
  2  3  2  0
  3  4  1  0
  4  5  1  0
  4  6  2  0
  6  7  1  0
  7  8  1  0
  8  9  1  0
  9 10  2  0
  9 11  2  0
  9 12  1  0
 12 13  2  0
 13 14  1  0
 14 15  2  0
 15 16  1  0
 16 17  2  0
 16 18  1  0
 18 19  1  0
 19 20  1  0
 20 21  2  0
 20 22  1  0
 22 23  1  0
 23 24  1  0
  7 25  2  0
 25  2  1  0
 17 12  1  0
 24 14  1  0
 22 15  1  0
M  END
$$$$
