
     RDKit          3D

 25 28  0  0  0  0  0  0  0  0999 V2000
   21.0288   65.6708   19.8813 C   0  0  0  0  0  0  0  0  0  0  0  0
   21.0559   65.9681   18.4187 C   0  0  0  0  0  0  0  0  0  0  0  0
   22.0985   65.5467   17.6182 C   0  0  0  0  0  0  0  0  0  0  0  0
   22.1195   65.8233   16.2672 C   0  0  0  0  0  0  0  0  0  0  0  0
   23.1676   65.3968   15.4764 O   0  0  0  0  0  0  0  0  0  0  0  0
   21.0962   66.5357   15.6545 C   0  0  0  0  0  0  0  0  0  0  0  0
   20.0509   66.9636   16.4344 C   0  0  0  0  0  0  0  0  0  0  0  0
   18.9692   67.6726   15.8958 N   0  0  0  0  0  0  0  0  0  0  0  0
   18.9312   68.5389   14.4411 S   0  0  0  0  0  6  0  0  0  0  0  0
   17.5476   69.1828   14.3375 O   0  0  0  0  0  0  0  0  0  0  0  0
   19.1340   67.5902   13.2860 O   0  0  0  0  0  0  0  0  0  0  0  0
   20.1042   69.7945   14.3135 C   0  0  0  0  0  0  0  0  0  0  0  0
   19.8263   71.0393   14.8395 C   0  0  0  0  0  0  0  0  0  0  0  0
   20.7283   72.0837   14.7665 C   0  0  0  0  0  0  0  0  0  0  0  0
   21.9090   71.8420   14.1538 C   0  0  0  0  0  0  0  0  0  0  0  0
   22.2608   70.6385   13.6084 C   0  0  0  0  0  0  0  0  0  0  0  0
   21.3236   69.6085   13.7016 C   0  0  0  0  0  0  0  0  0  0  0  0
   23.5690   70.4696   12.9817 C   0  0  0  0  0  0  0  0  0  0  0  0
   24.1073   71.7721   12.4507 C   0  0  0  0  0  0  0  0  0  0  0  0
   24.0260   72.8406   13.4662 C   0  0  0  0  0  0  0  0  0  0  0  0
   24.9802   73.5710   13.7540 O   0  0  0  0  0  0  0  0  0  0  0  0
   22.7594   72.9917   14.1146 N   0  0  0  0  0  0  0  0  0  0  0  0
   22.0636   74.0431   14.7806 C   0  0  0  0  0  0  0  0  0  0  0  0
   20.7423   73.5128   15.2193 C   0  0  0  0  0  0  0  0  0  0  0  0
   20.0435   66.6733   17.8116 C   0  0  0  0  0  0  0  0  0  0  0  0
  1  2  1  0
  2  3  2  0
  3  4  1  0
  4  5  1  0
  4  6  2  0
  6  7  1  0
  7  8  1  0
  8  9  1  0
  9 10  2  0
  9 11  2  0
  9 12  1  0
 12 13  2  0
 13 14  1  0
 14 15  2  0
 15 16  1  0
 16 17  2  0
 16 18  1  0
 18 19  1  0
 19 20  1  0
 20 21  2  0
 20 22  1  0
 22 23  1  0
 23 24  1  0
  7 25  2  0
 25  2  1  0
 17 12  1  0
 24 14  1  0
 22 15  1  0
M  END
$$$$
