
     RDKit          3D

 28 30  0  0  0  0  0  0  0  0999 V2000
   18.4425  -27.7599  -31.4148 C   0  0  0  0  0  0  0  0  0  0  0  0
   17.4155  -27.1559  -30.4815 C   0  0  0  0  0  0  0  0  0  0  0  0
   17.7688  -25.8180  -30.1466 O   0  0  0  0  0  0  0  0  0  0  0  0
   17.5980  -25.4243  -28.8261 C   0  0  0  0  0  0  0  0  0  0  0  0
   16.8858  -26.2135  -27.9357 C   0  0  0  0  0  0  0  0  0  0  0  0
   16.6965  -25.8564  -26.6226 C   0  0  0  0  0  0  0  0  0  0  0  0
   17.2266  -24.6737  -26.1546 C   0  0  0  0  0  0  0  0  0  0  0  0
   17.0140  -24.2990  -24.7312 C   0  0  0  0  0  0  0  0  0  0  0  0
   18.0005  -24.0057  -23.9483 N   0  0  0  0  0  0  0  0  0  0  0  0
   17.7672  -23.6777  -22.6904 C   0  0  0  0  0  0  0  0  0  0  0  0
   18.6389  -23.3162  -21.6268 N   0  0  0  0  0  0  0  0  0  0  0  0
   18.1732  -23.0635  -20.3072 C   0  0  0  0  0  0  0  0  0  0  0  0
   16.9329  -23.2363  -20.1403 O   0  0  0  0  0  0  0  0  0  0  0  0
   19.0144  -22.6377  -19.1993 C   0  0  0  0  0  0  0  0  0  0  0  0
   19.9926  -21.7001  -19.4561 C   0  0  0  0  0  0  0  0  0  0  0  0
   20.8438  -21.2381  -18.4445 C   0  0  0  0  0  0  0  0  0  0  0  0
   20.7060  -21.7254  -17.1680 C   0  0  0  0  0  0  0  0  0  0  0  0
   21.5759  -21.2458  -16.1599 N   0  0  0  0  0  0  0  0  0  0  0  0
   21.9722  -19.8958  -16.0544 C   0  0  0  0  0  0  0  0  0  0  0  0
   22.8294  -19.4554  -15.0087 N   0  0  0  0  0  0  0  0  0  0  0  0
   21.5601  -19.0835  -16.8947 O   0  0  0  0  0  0  0  0  0  0  0  0
   19.7295  -22.6582  -16.9228 C   0  0  0  0  0  0  0  0  0  0  0  0
   18.8833  -23.1199  -17.9204 C   0  0  0  0  0  0  0  0  0  0  0  0
   16.0715  -23.7828  -22.5868 S   0  0  0  0  0  0  0  0  0  0  0  0
   15.7456  -24.2576  -24.2177 C   0  0  0  0  0  0  0  0  0  0  0  0
   14.4399  -24.5486  -24.9023 C   0  0  0  0  0  0  0  0  0  0  0  0
   17.9324  -23.8765  -27.0084 C   0  0  0  0  0  0  0  0  0  0  0  0
   18.1202  -24.2417  -28.3320 C   0  0  0  0  0  0  0  0  0  0  0  0
  1  2  1  0
  2  3  1  0
  3  4  1  0
  4  5  2  0
  5  6  1  0
  6  7  2  0
  7  8  1  0
  8  9  1  0
  9 10  2  0
 10 11  1  0
 11 12  1  0
 12 13  2  0
 12 14  1  0
 14 15  2  0
 15 16  1  0
 16 17  2  0
 17 18  1  0
 18 19  1  0
 19 20  1  0
 19 21  2  0
 17 22  1  0
 22 23  2  0
 10 24  1  0
 24 25  1  0
 25 26  1  0
  7 27  1  0
 27 28  2  0
 28  4  1  0
 25  8  2  0
 23 14  1  0
M  END
$$$$
