
     RDKit          3D

 25 28  0  0  0  0  0  0  0  0999 V2000
   -7.9297  -11.6429  -60.2832 C   0  0  0  0  0  0  0  0  0  0  0  0
   -6.7751  -10.8311  -59.7447 C   0  0  2  0  0  0  0  0  0  0  0  0
   -7.3763   -9.8318  -58.9449 O   0  0  0  0  0  0  0  0  0  0  0  0
   -5.9777  -10.1557  -60.8577 C   0  0  0  0  0  0  0  0  0  0  0  0
   -5.6520   -8.7961  -60.5064 N   0  0  0  0  0  0  0  0  0  0  0  0
   -4.4943   -8.2563  -61.1247 C   0  0  0  0  0  0  0  0  0  0  0  0
   -3.4873   -9.3678  -61.5008 C   0  0  0  0  0  0  0  0  0  0  0  0
   -2.1911   -8.5088  -61.5459 C   0  0  0  0  0  0  0  0  0  0  0  0
   -2.3286   -7.8943  -60.2273 C   0  0  1  0  0  0  0  0  0  0  0  0
   -1.4216   -6.7852  -59.8216 C   0  0  2  0  0  0  0  0  0  0  0  0
    0.0211   -7.0733  -60.0454 C   0  0  0  0  0  0  0  0  0  0  0  0
    0.8017   -5.9086  -59.5875 C   0  0  0  0  0  0  0  0  0  0  0  0
    0.4069   -5.2535  -58.5281 C   0  0  0  0  0  0  0  0  0  0  0  0
    1.1953   -4.0831  -58.0664 C   0  0  0  0  0  0  0  0  0  0  0  0
    1.7116   -4.4725  -56.6913 C   0  0  1  0  0  0  0  0  0  0  0  0
    1.6246   -3.4300  -55.7676 O   0  0  0  0  0  0  0  0  0  0  0  0
    1.2123   -5.7835  -56.1960 C   0  0  0  0  0  0  0  0  0  0  0  0
   -0.2234   -6.0896  -56.3871 C   0  0  0  0  0  0  0  0  0  0  0  0
   -0.7883   -5.6164  -57.7388 C   0  0  1  0  0  0  0  0  0  0  0  0
   -1.5385   -4.3235  -57.3575 C   0  0  0  0  0  0  0  0  0  0  0  0
   -1.7056   -6.5973  -58.3418 C   0  0  1  0  0  0  0  0  0  0  0  0
   -3.1683   -6.2760  -58.1027 C   0  0  0  0  0  0  0  0  0  0  0  0
   -4.1087   -7.2027  -58.8379 C   0  0  0  0  0  0  0  0  0  0  0  0
   -3.7347   -7.2775  -60.2800 C   0  0  2  0  0  0  0  0  0  0  0  0
   -3.7325   -5.9447  -60.9666 C   0  0  0  0  0  0  0  0  0  0  0  0
  2  1  1  6
  2  3  1  0
  2  4  1  0
  4  5  1  0
  5  6  1  0
  6  7  1  0
  7  8  1  0
  9  8  1  6
  9 10  1  0
 10 11  1  1
 11 12  1  0
 12 13  2  0
 13 14  1  0
 14 15  1  0
 15 16  1  1
 15 17  1  0
 17 18  1  0
 18 19  1  0
 19 20  1  1
 19 21  1  0
 21 22  1  6
 22 23  1  0
 23 24  1  0
 24 25  1  6
 24  6  1  0
 24  9  1  0
 21 10  1  0
 19 13  1  0
M  END
$$$$
