
     RDKit          3D

 25 28  0  0  0  0  0  0  0  0999 V2000
   10.1386   29.0681   -0.5144 C   0  0  0  0  0  0  0  0  0  0  0  0
    8.7402   28.8598   -1.0464 C   0  0  2  0  0  0  0  0  0  0  0  0
    8.9024   28.0225   -2.1744 O   0  0  0  0  0  0  0  0  0  0  0  0
    8.0939   30.1682   -1.4948 C   0  0  0  0  0  0  0  0  0  0  0  0
    7.5924   30.0603   -2.8419 N   0  0  0  0  0  0  0  0  0  0  0  0
    6.3676   30.7279   -3.1028 C   0  0  0  0  0  0  0  0  0  0  0  0
    5.3789   30.5705   -1.9244 C   0  0  0  0  0  0  0  0  0  0  0  0
    4.0498   30.8151   -2.6949 C   0  0  0  0  0  0  0  0  0  0  0  0
    4.2689   29.8384   -3.7596 C   0  0  1  0  0  0  0  0  0  0  0  0
    3.3540   29.7948   -4.9335 C   0  0  2  0  0  0  0  0  0  0  0  0
    1.9107   29.7640   -4.5725 C   0  0  0  0  0  0  0  0  0  0  0  0
    1.1235   29.7043   -5.8186 C   0  0  0  0  0  0  0  0  0  0  0  0
    1.5763   29.0055   -6.8255 C   0  0  0  0  0  0  0  0  0  0  0  0
    0.7815   28.9437   -8.0781 C   0  0  0  0  0  0  0  0  0  0  0  0
    0.3946   27.4819   -8.2285 C   0  0  1  0  0  0  0  0  0  0  0  0
    0.5142   27.0249   -9.5416 O   0  0  0  0  0  0  0  0  0  0  0  0
    0.9847   26.5813   -7.2019 C   0  0  0  0  0  0  0  0  0  0  0  0
    2.4113   26.7734   -6.8565 C   0  0  0  0  0  0  0  0  0  0  0  0
    2.8453   28.2492   -6.7929 C   0  0  1  0  0  0  0  0  0  0  0  0
    3.5713   28.4462   -8.1397 C   0  0  0  0  0  0  0  0  0  0  0  0
    3.7493   28.5236   -5.6639 C   0  0  1  0  0  0  0  0  0  0  0  0
    5.2125   28.5545   -6.0615 C   0  0  0  0  0  0  0  0  0  0  0  0
    6.1267   28.9734   -4.9335 C   0  0  0  0  0  0  0  0  0  0  0  0
    5.6402   30.2437   -4.3215 C   0  0  2  0  0  0  0  0  0  0  0  0
    5.5287   31.3740   -5.3000 C   0  0  0  0  0  0  0  0  0  0  0  0
  2  1  1  6
  2  3  1  0
  2  4  1  0
  4  5  1  0
  5  6  1  0
  6  7  1  0
  7  8  1  0
  9  8  1  1
  9 10  1  0
 10 11  1  1
 11 12  1  0
 12 13  2  0
 13 14  1  0
 14 15  1  0
 15 16  1  6
 15 17  1  0
 17 18  1  0
 18 19  1  0
 19 20  1  6
 19 21  1  0
 21 22  1  6
 22 23  1  0
 23 24  1  0
 24 25  1  6
 24  6  1  0
 24  9  1  0
 21 10  1  0
 19 13  1  0
M  END
$$$$
