
     RDKit          3D

 24 26  0  0  0  0  0  0  0  0999 V2000
  133.8457  139.2452  115.5475 C   0  0  0  0  0  0  0  0  0  0  0  0
  135.1383  138.8485  116.1564 C   0  0  0  0  0  0  0  0  0  0  0  0
  135.5640  137.5418  116.0902 C   0  0  0  0  0  0  0  0  0  0  0  0
  136.7719  137.1809  116.6612 C   0  0  0  0  0  0  0  0  0  0  0  0
  137.5883  138.0660  117.3026 C   0  0  0  0  0  0  0  0  0  0  0  0
  137.1730  139.4199  117.3842 C   0  0  0  0  0  0  0  0  0  0  0  0
  138.1059  140.2796  118.0628 C   0  0  0  0  0  0  0  0  0  0  0  0
  137.5907  141.0835  118.9624 O   0  0  0  0  0  0  0  0  0  0  0  0
  139.5014  140.4162  117.9101 N   0  0  0  0  0  0  0  0  0  0  0  0
  140.2468  141.1040  118.9091 C   0  0  0  0  0  0  0  0  0  0  0  0
  141.1807  142.0529  118.2547 C   0  0  0  0  0  0  0  0  0  0  0  0
  140.8082  143.3030  117.8500 C   0  0  0  0  0  0  0  0  0  0  0  0
  141.7092  144.1831  117.2679 C   0  0  0  0  0  0  0  0  0  0  0  0
  143.0125  143.7880  117.0918 C   0  0  0  0  0  0  0  0  0  0  0  0
  144.1927  144.8584  116.3580 Cl  0  0  0  0  0  0  0  0  0  0  0  0
  143.4256  142.5519  117.4808 C   0  0  0  0  0  0  0  0  0  0  0  0
  142.5081  141.6911  118.0606 C   0  0  0  0  0  0  0  0  0  0  0  0
  140.0745  139.9459  116.6772 C   0  0  0  0  0  0  0  0  0  0  0  0
  139.7372  140.3986  115.4347 C   0  0  0  0  0  0  0  0  0  0  0  0
  140.2964  139.8766  114.2638 C   0  0  0  0  0  0  0  0  0  0  0  0
  141.2268  138.8644  114.3846 C   0  0  0  0  0  0  0  0  0  0  0  0
  141.5652  138.4120  115.6434 C   0  0  0  0  0  0  0  0  0  0  0  0
  140.9902  138.9562  116.7252 N   0  0  0  0  0  0  0  0  0  0  0  0
  135.9756  139.7540  116.8137 C   0  0  0  0  0  0  0  0  0  0  0  0
  1  2  1  0
  2  3  2  0
  3  4  1  0
  4  5  2  0
  5  6  1  0
  6  7  1  0
  7  8  2  0
  7  9  1  0
  9 10  1  0
 10 11  1  0
 11 12  2  0
 12 13  1  0
 13 14  2  0
 14 15  1  0
 14 16  1  0
 16 17  2  0
  9 18  1  0
 18 19  2  0
 19 20  1  0
 20 21  2  0
 21 22  1  0
 22 23  2  0
  6 24  2  0
 24  2  1  0
 17 11  1  0
 23 18  1  0
M  END
$$$$
