
     RDKit          3D

  5  4  0  0  0  0  0  0  0  0999 V2000
   45.2832   33.0232   25.5701 Cl  0  0  0  0  0  0  0  0  0  0  0  0
   46.2467   31.5602   25.1649 C   0  0  0  0  0  0  0  0  0  0  0  0
   45.3721   30.6462   24.3206 C   0  0  0  0  0  0  0  0  0  0  0  0
   46.0717   29.3457   24.0203 C   0  0  0  0  0  0  0  0  0  0  0  0
   44.9765   28.2732   23.1257 Cl  0  0  0  0  0  0  0  0  0  0  0  0
  1  2  1  0
  2  3  1  0
  3  4  1  0
  4  5  1  0
M  END
$$$$
