
     RDKit          3D

  5  4  0  0  0  0  0  0  0  0999 V2000
   37.6811   10.0267    0.6318 Cl  0  0  0  0  0  0  0  0  0  0  0  0
   38.8186   10.6745    1.8644 C   0  0  0  0  0  0  0  0  0  0  0  0
   40.2334   10.4700    1.3449 C   0  0  0  0  0  0  0  0  0  0  0  0
   41.2445   11.1482    2.2330 C   0  0  0  0  0  0  0  0  0  0  0  0
   42.7689   11.3569    1.3484 Cl  0  0  0  0  0  0  0  0  0  0  0  0
  1  2  1  0
  2  3  1  0
  3  4  1  0
  4  5  1  0
M  END
$$$$
