
     RDKit          3D

 22 23  0  0  0  0  0  0  0  0999 V2000
  125.7051  134.5140  144.5846 C   0  0  0  0  0  0  0  0  0  0  0  0
  126.2660  135.6062  143.8904 O   0  0  0  0  0  0  0  0  0  0  0  0
  126.8770  136.6828  144.4647 C   0  0  0  0  0  0  0  0  0  0  0  0
  126.9528  136.8424  145.8288 C   0  0  0  0  0  0  0  0  0  0  0  0
  127.5535  137.9102  146.4290 C   0  0  0  0  0  0  0  0  0  0  0  0
  128.1295  138.9107  145.6429 C   0  0  0  0  0  0  0  0  0  0  0  0
  128.6568  140.1173  146.3353 C   0  0  0  0  0  0  0  0  0  0  0  0
  127.7507  141.1313  146.5604 N   0  0  0  0  0  0  0  0  0  0  0  0
  127.9431  142.3680  147.1297 C   0  0  0  0  0  0  0  0  0  0  0  0
  126.8101  143.3397  147.1553 C   0  0  1  0  0  0  0  0  0  0  0  0
  125.6520  142.6240  147.4813 O   0  0  0  0  0  0  0  0  0  0  0  0
  127.0765  144.3294  148.2247 C   0  0  0  0  0  0  0  0  0  0  0  0
  128.3146  144.8392  148.4521 C   0  0  0  0  0  0  0  0  0  0  0  0
  128.5858  145.7808  149.4400 C   0  0  0  0  0  0  0  0  0  0  0  0
  127.5308  146.1888  150.1969 C   0  0  0  0  0  0  0  0  0  0  0  0
  126.2652  145.6882  149.9888 C   0  0  0  0  0  0  0  0  0  0  0  0
  124.9046  146.2337  150.9928 Cl  0  0  0  0  0  0  0  0  0  0  0  0
  126.0149  144.7619  149.0132 C   0  0  0  0  0  0  0  0  0  0  0  0
  128.0748  138.7823  144.2997 C   0  0  0  0  0  0  0  0  0  0  0  0
  128.9197  140.0388  143.1159 Br  0  0  0  0  0  0  0  0  0  0  0  0
  127.4611  137.6912  143.6951 C   0  0  0  0  0  0  0  0  0  0  0  0
  127.4215  137.5905  142.3182 O   0  0  0  0  0  0  0  0  0  0  0  0
  1  2  1  0
  2  3  1  0
  3  4  2  0
  4  5  1  0
  5  6  2  0
  6  7  1  0
  7  8  1  0
  8  9  1  0
  9 10  1  0
 10 11  1  1
 10 12  1  0
 12 13  2  0
 13 14  1  0
 14 15  2  0
 15 16  1  0
 16 17  1  0
 16 18  2  0
  6 19  1  0
 19 20  1  0
 19 21  2  0
 21 22  1  0
 21  3  1  0
 18 12  1  0
M  END
$$$$
