
     RDKit          3D

 20 21  0  0  0  0  0  0  0  0999 V2000
   15.7773  -28.1071  -20.8927 C   0  0  0  0  0  0  0  0  0  0  0  0
   15.7944  -27.4808  -19.5365 C   0  0  0  0  0  0  0  0  0  0  0  0
   14.9913  -26.2242  -19.4642 C   0  0  0  0  0  0  0  0  0  0  0  0
   13.8636  -26.1954  -18.6575 C   0  0  0  0  0  0  0  0  0  0  0  0
   13.0988  -25.0774  -18.5581 C   0  0  0  0  0  0  0  0  0  0  0  0
   13.4648  -23.9654  -19.2770 C   0  0  0  0  0  0  0  0  0  0  0  0
   14.6106  -24.0100  -20.0902 C   0  0  0  0  0  0  0  0  0  0  0  0
   15.3926  -25.1075  -20.2105 C   0  0  0  0  0  0  0  0  0  0  0  0
   16.5413  -25.2211  -21.0025 N   0  0  0  0  0  0  0  0  0  0  0  0
   16.7032  -24.6261  -22.2876 C   0  0  0  0  0  0  0  0  0  0  0  0
   15.7248  -24.1148  -22.8479 O   0  0  0  0  0  0  0  0  0  0  0  0
   18.0087  -24.6644  -22.8469 N   0  0  0  0  0  0  0  0  0  0  0  0
   18.2597  -24.2812  -24.1842 C   0  0  0  0  0  0  0  0  0  0  0  0
   19.5754  -23.8612  -24.4408 C   0  0  0  0  0  0  0  0  0  0  0  0
   19.8989  -23.4753  -25.7140 C   0  0  0  0  0  0  0  0  0  0  0  0
   18.9857  -23.4863  -26.7404 C   0  0  0  0  0  0  0  0  0  0  0  0
   19.4789  -22.9748  -28.3586 Cl  0  0  0  0  0  0  0  0  0  0  0  0
   17.7097  -23.8942  -26.4880 C   0  0  0  0  0  0  0  0  0  0  0  0
   16.5154  -23.9201  -27.7746 Cl  0  0  0  0  0  0  0  0  0  0  0  0
   17.3632  -24.2904  -25.1962 C   0  0  0  0  0  0  0  0  0  0  0  0
  1  2  1  0
  2  3  1  0
  3  4  2  0
  4  5  1  0
  5  6  2  0
  6  7  1  0
  7  8  2  0
  8  9  1  0
  9 10  1  0
 10 11  2  0
 10 12  1  0
 12 13  1  0
 13 14  2  0
 14 15  1  0
 15 16  2  0
 16 17  1  0
 16 18  1  0
 18 19  1  0
 18 20  2  0
  8  3  1  0
 20 13  1  0
M  END
$$$$
