
     RDKit          3D

 20 21  0  0  0  0  0  0  0  0999 V2000
    4.4666   26.5594   -6.6355 C   0  0  0  0  0  0  0  0  0  0  0  0
    3.4060   25.5075   -6.6189 C   0  0  0  0  0  0  0  0  0  0  0  0
    2.3097   25.7691   -7.5980 C   0  0  0  0  0  0  0  0  0  0  0  0
    2.3358   25.1186   -8.8226 C   0  0  0  0  0  0  0  0  0  0  0  0
    1.3629   25.3229   -9.7480 C   0  0  0  0  0  0  0  0  0  0  0  0
    0.3432   26.1931   -9.4476 C   0  0  0  0  0  0  0  0  0  0  0  0
    0.3304   26.8449   -8.2021 C   0  0  0  0  0  0  0  0  0  0  0  0
    1.2841   26.6628   -7.2598 C   0  0  0  0  0  0  0  0  0  0  0  0
    1.3342   27.2803   -6.0045 N   0  0  0  0  0  0  0  0  0  0  0  0
    1.6387   28.6560   -5.7884 C   0  0  0  0  0  0  0  0  0  0  0  0
    1.4863   29.4645   -6.7135 O   0  0  0  0  0  0  0  0  0  0  0  0
    2.1073   29.0086   -4.4943 N   0  0  0  0  0  0  0  0  0  0  0  0
    2.2894   30.3560   -4.1076 C   0  0  0  0  0  0  0  0  0  0  0  0
    2.6455   30.5406   -2.7613 C   0  0  0  0  0  0  0  0  0  0  0  0
    2.8420   31.8180   -2.3092 C   0  0  0  0  0  0  0  0  0  0  0  0
    2.7039   32.9159   -3.1235 C   0  0  0  0  0  0  0  0  0  0  0  0
    2.9755   34.5342   -2.4673 Cl  0  0  0  0  0  0  0  0  0  0  0  0
    2.3579   32.7333   -4.4293 C   0  0  0  0  0  0  0  0  0  0  0  0
    2.1710   34.1128   -5.4992 Cl  0  0  0  0  0  0  0  0  0  0  0  0
    2.1538   31.4384   -4.9062 C   0  0  0  0  0  0  0  0  0  0  0  0
  1  2  1  0
  2  3  1  0
  3  4  2  0
  4  5  1  0
  5  6  2  0
  6  7  1  0
  7  8  2  0
  8  9  1  0
  9 10  1  0
 10 11  2  0
 10 12  1  0
 12 13  1  0
 13 14  2  0
 14 15  1  0
 15 16  2  0
 16 17  1  0
 16 18  1  0
 18 19  1  0
 18 20  2  0
  8  3  1  0
 20 13  1  0
M  END
$$$$
