
     RDKit          3D

 19 20  0  0  0  0  0  0  0  0999 V2000
   -0.5290   53.2638   14.4714 N   0  0  0  0  0  0  0  0  0  0  0  0
   -1.4581   53.8236   13.5463 C   0  0  0  0  0  0  0  0  0  0  0  0
   -2.2117   53.0763   12.8184 N   0  0  0  0  0  0  0  0  0  0  0  0
   -3.6180   52.9977   12.9740 C   0  0  0  0  0  0  0  0  0  0  0  0
   -4.3346   54.2416   13.7513 S   0  0  0  0  0  3  0  0  0  0  0  0
   -5.9722   54.6037   14.1790 O   0  0  0  0  0  0  0  0  0  0  0  0
   -6.9007   54.2329   13.1905 C   0  0  0  0  0  0  0  0  0  0  0  0
   -7.2470   52.8089   13.2120 C   0  0  0  0  0  0  0  0  0  0  0  0
   -6.6659   51.6589   12.8870 C   0  0  0  0  0  0  0  0  0  0  0  0
   -5.3876   51.2226   12.3430 C   0  0  0  0  0  0  0  0  0  0  0  0
   -4.1697   51.7644   12.3817 C   0  0  0  0  0  0  0  0  0  0  0  0
   -1.5529   55.2730   13.4258 C   0  0  0  0  0  0  0  0  0  0  0  0
   -1.0731   55.9460   12.3362 C   0  0  0  0  0  0  0  0  0  0  0  0
   -1.1502   57.3274   12.1950 C   0  0  0  0  0  0  0  0  0  0  0  0
   -1.7403   58.0606   13.2037 C   0  0  0  0  0  0  0  0  0  0  0  0
   -1.8445   59.7997   13.0402 Cl  0  0  0  0  0  0  0  0  0  0  0  0
   -2.2311   57.4158   14.3088 C   0  0  0  0  0  0  0  0  0  0  0  0
   -2.9788   58.3486   15.5862 Cl  0  0  0  0  0  0  0  0  0  0  0  0
   -2.1416   56.0296   14.4266 C   0  0  0  0  0  0  0  0  0  0  0  0
  1  2  1  0
  2  3  2  3
  3  4  1  0
  4  5  2  0
  5  6  1  0
  6  7  1  0
  7  8  1  0
  8  9  2  0
  9 10  1  0
 10 11  2  0
  2 12  1  0
 12 13  2  0
 13 14  1  0
 14 15  2  0
 15 16  1  0
 15 17  1  0
 17 18  1  0
 17 19  2  0
 11  4  1  0
 19 12  1  0
M  CHG  1   5   1
M  END
$$$$
