
     RDKit          3D

  8  8  0  0  0  0  0  0  0  0999 V2000
  128.7993  135.5703  141.0707 C   0  0  0  0  0  0  0  0  0  0  0  0
  128.7339  137.4357  141.6586 C   0  0  0  0  0  0  0  0  0  0  0  0
  126.5949  137.0339  141.5818 Cl  0  0  0  0  0  0  0  0  0  0  0  0
  128.7655  137.5687  141.4104 C   0  0  0  0  0  0  0  0  0  0  0  0
  128.8087  137.7619  141.0365 P   0  0  0  0  0  5  0  0  0  0  0  0
  128.8696  138.0208  140.5539 Cl  0  0  0  0  0  0  0  0  0  0  0  0
  129.0352  138.8453  138.8609 C   0  0  0  0  0  0  0  0  0  0  0  0
  128.1769  137.3542  139.2806 C   0  0  0  0  0  0  0  0  0  0  0  0
  1  2  1  0
  2  3  1  0
  2  4  1  0
  4  5  3  0
  5  6  1  0
  5  7  1  0
  7  8  1  0
  8  2  1  0
M  END
$$$$
