
     RDKit          3D

 20 22  0  0  0  0  0  0  0  0999 V2000
   22.3569   74.4362   13.9530 Cl  0  0  0  0  0  0  0  0  0  0  0  0
   22.5435   73.1124   15.1312 C   0  0  0  0  0  0  0  0  0  0  0  0
   21.3153   72.2957   15.2014 C   0  0  0  0  0  0  0  0  0  0  0  0
   21.3311   70.9882   15.0571 C   0  0  0  0  0  0  0  0  0  0  0  0
   22.5418   70.2118   14.8158 C   0  0  0  0  0  0  0  0  0  0  0  0
   22.4818   68.7964   14.6698 N   0  0  0  0  0  0  0  0  0  0  0  0
   21.5580   68.0251   15.4286 C   0  0  0  0  0  0  0  0  0  0  0  0
   22.1854   67.5323   16.4690 N   0  0  0  0  0  0  0  0  0  0  0  0
   21.6865   66.7011   17.5135 C   0  0  0  0  0  0  0  0  0  0  0  0
   22.7691   66.0114   18.0321 C   0  0  0  0  0  0  0  0  0  0  0  0
   22.5846   65.1181   19.0727 C   0  0  0  0  0  0  0  0  0  0  0  0
   21.3344   64.8782   19.6314 C   0  0  0  0  0  0  0  0  0  0  0  0
   20.2639   65.5669   19.1112 C   0  0  0  0  0  0  0  0  0  0  0  0
   20.4401   66.4480   18.0861 C   0  0  0  0  0  0  0  0  0  0  0  0
   19.1039   67.0261   17.7512 C   0  0  0  0  0  0  0  0  0  0  0  0
   18.6439   66.6540   16.3868 C   0  0  0  0  0  0  0  0  0  0  0  0
   19.1831   67.4336   15.3256 N   0  0  0  0  0  0  0  0  0  0  0  0
   20.2361   67.9765   14.8997 N   0  0  0  0  0  0  0  0  0  0  0  0
   23.6648   70.9035   14.7454 C   0  0  0  0  0  3  0  0  0  0  0  0
   23.8018   72.3553   14.8853 C   0  0  0  0  0  0  0  0  0  0  0  0
  1  2  1  0
  2  3  1  0
  3  4  2  0
  4  5  1  0
  5  6  1  0
  6  7  1  0
  7  8  2  0
  8  9  1  0
  9 10  2  0
 10 11  1  0
 11 12  2  0
 12 13  1  0
 13 14  2  0
 14 15  1  0
 15 16  1  0
 16 17  1  0
 17 18  2  0
  5 19  2  0
 19 20  1  0
 20  2  1  0
 18  7  1  0
 14  9  1  0
M  CHG  1  19  -1
M  END
$$$$
