
     RDKit          3D

 14 15  0  0  0  0  0  0  0  0999 V2000
  176.1109  146.2947  182.1872 C   0  0  0  0  0  0  0  0  0  0  0  0
  177.5611  146.3958  182.5008 C   0  0  0  0  0  0  0  0  0  0  0  0
  178.4321  145.2896  182.9352 C   0  0  0  0  0  0  0  0  0  0  0  0
  178.1315  147.5899  182.3808 C   0  0  0  0  0  0  0  0  0  0  0  0
  179.4506  148.0319  182.8900 C   0  0  0  0  0  0  0  0  0  0  0  0
  179.7114  149.4525  182.5532 C   0  0  0  0  0  0  0  0  0  0  0  0
  178.8836  150.0731  181.6332 C   0  0  0  0  0  0  0  0  0  0  0  0
  179.0615  151.3855  181.2704 C   0  0  0  0  0  0  0  0  0  0  0  0
  180.0753  152.1448  181.8081 C   0  0  0  0  0  0  0  0  0  0  0  0
  180.5345  153.4518  181.6782 C   0  0  0  0  0  0  0  0  0  0  0  0
  181.6298  153.6149  182.5139 C   0  0  0  0  0  0  0  0  0  0  0  0
  181.8281  152.4337  183.1347 N   0  0  0  0  0  0  0  0  0  0  0  0
  180.9011  151.5183  182.7288 C   0  0  0  0  0  0  0  0  0  0  0  0
  180.7368  150.1947  183.1072 C   0  0  0  0  0  0  0  0  0  0  0  0
  1  2  1  0
  2  3  1  0
  2  4  2  3
  4  5  1  0
  5  6  1  0
  6  7  2  0
  7  8  1  0
  8  9  2  0
  9 10  1  0
 10 11  2  0
 11 12  1  0
 12 13  1  0
 13 14  2  0
 14  6  1  0
 13  9  1  0
M  END
$$$$
