
     RDKit          3D

 16 17  0  0  0  0  0  0  0  0999 V2000
   -2.8732   -6.2856  -57.6001 N   0  0  0  0  0  4  0  0  0  0  0  0
   -1.5594   -6.8793  -57.7843 C   0  0  2  0  0  0  0  0  0  0  0  0
   -0.5062   -6.0415  -57.1463 C   0  0  0  0  0  0  0  0  0  0  0  0
    0.1364   -5.0320  -57.8326 C   0  0  0  0  0  0  0  0  0  0  0  0
    1.1177   -4.2520  -57.2371 C   0  0  0  0  0  0  0  0  0  0  0  0
    1.4914   -4.4574  -55.9261 C   0  0  0  0  0  0  0  0  0  0  0  0
    2.4825   -3.6721  -55.3192 O   0  0  0  0  0  0  0  0  0  0  0  0
    0.8530   -5.4648  -55.2344 C   0  0  0  0  0  0  0  0  0  0  0  0
   -0.1247   -6.2394  -55.8333 C   0  0  0  0  0  0  0  0  0  0  0  0
   -1.2571   -7.1263  -59.2228 C   0  0  0  0  0  0  0  0  0  0  0  0
   -1.6160   -6.2197  -60.2070 C   0  0  0  0  0  0  0  0  0  0  0  0
   -1.3392   -6.4425  -61.5406 C   0  0  0  0  0  0  0  0  0  0  0  0
   -0.6875   -7.5897  -61.9445 C   0  0  0  0  0  0  0  0  0  0  0  0
   -0.2971   -7.9097  -63.7991 Br  0  0  0  0  0  0  0  0  0  0  0  0
   -0.3222   -8.5043  -60.9784 C   0  0  0  0  0  0  0  0  0  0  0  0
   -0.6066   -8.2655  -59.6516 C   0  0  0  0  0  0  0  0  0  0  0  0
  2  1  1  6
  2  3  1  0
  3  4  2  0
  4  5  1  0
  5  6  2  0
  6  7  1  0
  6  8  1  0
  8  9  2  0
  2 10  1  0
 10 11  2  0
 11 12  1  0
 12 13  2  0
 13 14  1  0
 13 15  1  0
 15 16  2  0
  9  3  1  0
 16 10  1  0
M  CHG  1   1   1
M  END
$$$$
