
     RDKit          3D

 12 12  0  0  0  0  0  0  0  0999 V2000
  159.2748  150.2853  169.4462 C   0  0  0  0  0  0  0  0  0  0  0  0
  158.0555  150.3927  170.1447 O   0  0  0  0  0  0  0  0  0  0  0  0
  157.9579  150.4003  171.5219 C   0  0  0  0  0  0  0  0  0  0  0  0
  159.0723  150.4703  172.3320 C   0  0  0  0  0  0  0  0  0  0  0  0
  158.9871  150.4785  173.7070 C   0  0  0  0  0  0  0  0  0  0  0  0
  160.0974  150.5485  174.5384 O   0  0  0  0  0  0  0  0  0  0  0  0
  157.7143  150.4124  174.2496 C   0  0  0  0  0  0  0  0  0  0  0  0
  157.6145  150.4200  175.6408 O   0  0  0  0  0  0  0  0  0  0  0  0
  156.3302  150.2044  176.1947 C   0  0  0  0  0  0  0  0  0  0  0  0
  156.5893  150.3417  173.4354 C   0  0  0  0  0  0  0  0  0  0  0  0
  156.6886  150.3343  172.0596 C   0  0  0  0  0  0  0  0  0  0  0  0
  155.5582  150.2633  171.2458 O   0  0  0  0  0  0  0  0  0  0  0  0
  1  2  1  0
  2  3  1  0
  3  4  2  0
  4  5  1  0
  5  6  1  0
  5  7  2  0
  7  8  1  0
  8  9  1  0
  7 10  1  0
 10 11  2  0
 11 12  1  0
 11  3  1  0
M  END
$$$$
