
     RDKit          3D

 21 23  0  0  0  0  0  0  0  0999 V2000
  129.8450  140.9127  153.6170 C   0  0  0  0  0  0  0  0  0  0  0  0
  130.7705  141.4370  152.5228 C   0  0  0  0  0  0  0  0  0  0  0  0
  130.1355  141.0792  151.1443 B   0  0  0  0  0  0  0  0  0  0  0  0
  128.9494  141.8397  150.5363 N   0  0  0  0  0  0  0  0  0  0  0  0
  128.7666  143.0861  151.2175 O   0  0  0  0  0  0  0  0  0  0  0  0
  127.9910  144.0219  150.4861 C   0  0  0  0  0  0  0  0  0  0  0  0
  127.7929  143.6945  149.2508 N   0  0  0  0  0  0  0  0  0  0  0  0
  127.1250  144.3629  148.3762 C   0  0  0  0  0  0  0  0  0  0  0  0
  126.5624  145.4945  148.6948 N   0  0  0  0  0  0  0  0  0  0  0  0
  126.6966  145.9612  149.9851 C   0  0  0  0  0  0  0  0  0  0  0  0
  126.1442  147.1277  150.4126 C   0  0  0  0  0  0  0  0  0  0  0  0
  126.3317  147.5186  151.7440 C   0  0  0  0  0  0  0  0  0  0  0  0
  127.0661  146.7463  152.6365 C   0  0  0  0  0  0  0  0  0  0  0  0
  127.6264  145.5681  152.2119 C   0  0  0  0  0  0  0  0  0  0  0  0
  127.4313  145.1839  150.8687 C   0  0  0  0  0  0  0  0  0  0  0  0
  127.1756  143.6227  147.1296 N   0  0  0  0  0  0  0  0  0  0  0  0
  128.1237  142.4670  147.1748 C   0  0  0  0  0  0  0  0  0  0  0  0
  127.8300  141.5108  148.2666 C   0  0  0  0  0  0  0  0  0  0  0  0
  126.6153  140.3125  147.5397 Cl  0  0  0  0  0  0  0  0  0  0  0  0
  128.1662  141.3265  149.4910 C   0  0  0  0  0  0  0  0  0  0  0  0
  127.3955  139.7372  150.1076 Cl  0  0  0  0  0  0  0  0  0  0  0  0
  1  2  1  0
  2  3  1  0
  3  4  1  0
  4  5  1  0
  5  6  1  0
  6  7  2  0
  7  8  1  0
  8  9  2  0
  9 10  1  0
 10 11  2  0
 11 12  1  0
 12 13  2  0
 13 14  1  0
 14 15  2  0
  8 16  1  0
 16 17  1  0
 17 18  1  0
 18 19  1  0
 18 20  2  0
 20 21  1  0
 20  4  1  0
 15  6  1  0
 15 10  1  0
M  END
$$$$
