
     RDKit          3D

 30 32  0  0  0  0  0  0  0  0999 V2000
  121.2951  135.3085  147.3660 C   0  0  0  0  0  0  0  0  0  0  0  0
  122.5414  134.9774  147.1032 C   0  0  0  0  0  0  0  0  0  0  0  0
  123.1348  135.1491  145.7992 C   0  0  0  0  0  0  0  0  0  0  0  0
  123.6201  133.9798  145.2840 C   0  0  0  0  0  0  0  0  0  0  0  0
  124.2699  133.9165  143.9555 C   0  0  0  0  0  0  0  0  0  0  0  0
  125.5582  133.1583  144.0804 C   0  0  0  0  0  0  0  0  0  0  0  0
  126.7095  134.1220  143.8471 C   0  0  0  0  0  0  0  0  0  0  0  0
  126.8739  135.0807  144.9848 C   0  0  0  0  0  0  0  0  0  0  0  0
  127.0537  136.5105  144.5781 C   0  0  0  0  0  0  0  0  0  0  0  0
  126.9074  136.7430  143.0791 C   0  0  0  0  0  0  0  0  0  0  0  0
  127.0967  138.1877  142.9033 N   0  0  0  0  0  0  0  0  0  0  0  0
  128.3856  138.6301  143.3247 C   0  0  0  0  0  0  0  0  0  0  0  0
  128.5142  140.0948  143.5950 C   0  0  0  0  0  0  0  0  0  0  0  0
  129.3159  140.3511  144.7207 O   0  0  0  0  0  0  0  0  0  0  0  0
  128.7078  141.2068  145.5639 N   0  0  0  0  0  0  0  0  0  0  0  0
  127.7159  142.1557  145.7887 N   0  0  0  0  0  0  0  0  0  0  0  0
  128.5377  141.8405  146.8111 C   0  0  0  0  0  0  0  0  0  0  0  0
  128.8970  142.0468  148.1417 N   0  0  0  0  0  0  0  0  0  0  0  0
  128.4303  143.1658  148.8967 C   0  0  0  0  0  0  0  0  0  0  0  0
  128.7343  143.3228  150.2279 C   0  0  0  0  0  0  0  0  0  0  0  0
  128.2773  144.3993  150.9542 C   0  0  0  0  0  0  0  0  0  0  0  0
  127.4948  145.3530  150.3502 C   0  0  0  0  0  0  0  0  0  0  0  0
  126.8994  146.7368  151.2612 Cl  0  0  0  0  0  0  0  0  0  0  0  0
  127.1845  145.1985  149.0036 C   0  0  0  0  0  0  0  0  0  0  0  0
  126.1863  146.4217  148.2534 Cl  0  0  0  0  0  0  0  0  0  0  0  0
  127.6471  144.1220  148.2951 C   0  0  0  0  0  0  0  0  0  0  0  0
  126.3673  137.4487  145.3656 N   0  0  0  0  0  0  0  0  0  0  0  0
  125.1498  137.7824  145.4989 C   0  0  0  0  0  0  0  0  0  0  0  0
  123.9661  137.2703  144.8369 C   0  0  0  0  0  0  0  0  0  0  0  0
  123.2742  136.2477  145.0366 N   0  0  0  0  0  0  0  0  0  0  0  0
  1  2  2  0
  2  3  1  0
  3  4  2  0
  4  5  1  0
  5  6  1  0
  6  7  1  0
  7  8  1  0
  8  9  1  0
  9 10  1  0
 10 11  1  0
 11 12  1  0
 12 13  1  0
 13 14  1  0
 14 15  1  0
 15 16  1  0
 16 17  2  0
 17 18  1  0
 18 19  1  0
 19 20  2  0
 20 21  1  0
 21 22  2  0
 22 23  1  0
 22 24  1  0
 24 25  1  0
 24 26  2  0
  9 27  1  0
 27 28  2  0
 28 29  1  0
 29 30  2  0
 30  3  1  0
 17 15  1  0
 26 19  1  0
M  END
$$$$
