
     RDKit          3D

 22 23  0  0  0  0  0  0  0  0999 V2000
  128.4171  141.5386  143.8424 N   0  0  0  0  0  0  0  0  0  0  0  0
  127.7884  142.4966  144.7350 C   0  0  0  0  0  0  0  0  0  0  0  0
  128.8785  143.1178  145.5643 C   0  0  0  0  0  0  0  0  0  0  0  0
  128.6258  143.8988  146.5873 C   0  0  0  0  0  0  0  0  0  0  0  0
  127.4999  143.5384  147.4998 C   0  0  0  0  0  0  0  0  0  0  0  0
  126.5102  144.6789  147.4233 C   0  0  0  0  0  0  0  0  0  0  0  0
  126.1403  145.2000  148.7568 C   0  0  0  0  0  0  0  0  0  0  0  0
  126.8918  145.9510  149.4459 N   0  0  0  0  0  0  0  0  0  0  0  0
  128.1711  146.4523  149.1593 C   0  0  0  0  0  0  0  0  0  0  0  0
  129.2110  146.0676  150.1938 C   0  0  0  0  0  0  0  0  0  0  0  0
  129.5566  144.6494  150.1350 C   0  0  0  0  0  0  0  0  0  0  0  0
  129.3533  143.7695  151.0700 C   0  0  0  0  0  0  0  0  0  0  0  0
  128.6825  142.6734  150.9107 C   0  0  0  0  0  0  0  0  0  0  0  0
  128.8217  141.4514  152.1512 Cl  0  0  0  0  0  0  0  0  0  0  0  0
  127.8247  142.4682  149.7079 C   0  0  0  0  0  0  0  0  0  0  0  0
  127.9530  143.2318  148.7681 N   0  0  0  0  0  0  0  0  0  0  0  0
  126.9082  141.3283  149.8143 C   0  0  0  0  0  0  0  0  0  0  0  0
  126.4147  141.0426  151.5174 Cl  0  0  0  0  0  0  0  0  0  0  0  0
  125.7061  141.3334  148.9467 C   0  0  0  0  0  0  0  0  0  0  0  0
  125.0434  142.4981  148.7638 O   0  0  0  0  0  0  0  0  0  0  0  0
  124.9317  143.3769  149.7849 C   0  0  0  0  0  0  0  0  0  0  0  0
  124.7903  144.8180  149.3331 C   0  0  0  0  0  0  0  0  0  0  0  0
  1  2  1  0
  2  3  1  0
  3  4  2  3
  4  5  1  0
  5  6  1  0
  6  7  1  0
  7  8  2  0
  8  9  1  0
  9 10  1  0
 10 11  1  0
 11 12  2  0
 12 13  2  0
 13 14  1  0
 13 15  1  0
 15 16  2  0
 15 17  1  0
 17 18  1  0
 17 19  1  0
 19 20  1  0
 20 21  1  0
 21 22  1  0
 16  5  1  0
 22  7  1  0
M  END
$$$$
