
     RDKit          3D

 22 24  0  0  0  0  0  0  0  0999 V2000
  161.2485  152.1812  175.2997 C   0  0  0  0  0  0  0  0  0  0  0  0
  160.4090  151.6033  174.2137 C   0  0  0  0  0  0  0  0  0  0  0  0
  159.1830  151.0324  174.4509 C   0  0  0  0  0  0  0  0  0  0  0  0
  158.3911  150.4901  173.4389 C   0  0  0  0  0  0  0  0  0  0  0  0
  157.1524  149.8963  173.6895 N   0  0  0  0  0  0  0  0  0  0  0  0
  156.5824  149.5598  174.9315 C   0  0  0  0  0  0  0  0  0  0  0  0
  157.2934  149.6773  176.1206 C   0  0  0  0  0  0  0  0  0  0  0  0
  156.7657  149.3574  177.3336 C   0  0  0  0  0  0  0  0  0  0  0  0
  157.5114  149.4798  178.6104 C   0  0  0  0  0  0  0  0  0  0  0  0
  158.6689  148.7306  178.5900 F   0  0  0  0  0  0  0  0  0  0  0  0
  156.7182  149.1716  179.6999 F   0  0  0  0  0  0  0  0  0  0  0  0
  157.8801  150.8056  178.7355 F   0  0  0  0  0  0  0  0  0  0  0  0
  155.4698  148.8970  177.3786 C   0  0  0  0  0  0  0  0  0  0  0  0
  154.7013  148.7552  176.2242 C   0  0  0  0  0  0  0  0  0  0  0  0
  155.2941  149.0998  174.9984 C   0  0  0  0  0  0  0  0  0  0  0  0
  154.4954  148.9404  173.9171 F   0  0  0  0  0  0  0  0  0  0  0  0
  158.8804  150.5464  172.1945 N   0  0  0  0  0  0  0  0  0  0  0  0
  158.4297  150.1399  170.9997 N   0  0  0  0  0  0  0  0  0  0  0  0
  159.3026  150.4236  170.0308 C   0  0  0  0  0  0  0  0  0  0  0  0
  160.3443  151.0316  170.6291 N   0  0  0  0  0  0  0  0  0  0  0  0
  160.0930  151.1102  171.9549 C   0  0  0  0  0  0  0  0  0  0  0  0
  160.8422  151.6288  172.9480 N   0  0  0  0  0  0  0  0  0  0  0  0
  1  2  1  0
  2  3  1  0
  3  4  2  0
  4  5  1  0
  5  6  1  0
  6  7  2  0
  7  8  1  0
  8  9  1  0
  9 10  1  0
  9 11  1  0
  9 12  1  0
  8 13  2  0
 13 14  1  0
 14 15  2  0
 15 16  1  0
  4 17  1  0
 17 18  1  0
 18 19  2  0
 19 20  1  0
 20 21  2  0
 21 22  1  0
 22  2  2  0
 15  6  1  0
 21 17  1  0
M  END
$$$$
