
     RDKit          3D

 22 23  0  0  0  0  0  0  0  0999 V2000
   13.8308   20.6869   16.1635 C   0  0  0  0  0  0  0  0  0  0  0  0
   15.3469   20.6030   16.0201 C   0  0  0  0  0  0  0  0  0  0  0  0
   16.0157   20.5824   17.3064 N   0  0  0  0  0  4  0  0  0  0  0  0
   15.4541   21.7153   18.0443 C   0  0  0  0  0  0  0  0  0  0  0  0
   16.1330   23.0046   17.7054 C   0  0  0  0  0  0  0  0  0  0  0  0
   15.8297   19.3515   17.9807 C   0  0  0  0  0  0  0  0  0  0  0  0
   16.4264   19.2675   19.3460 C   0  0  0  0  0  0  0  0  0  0  0  0
   18.1621   19.0867   19.5182 S   0  0  0  0  0  0  0  0  0  0  0  0
   19.1198   20.5641   19.3361 C   0  0  0  0  0  0  0  0  0  0  0  0
   19.3276   21.1761   20.7282 C   0  0  0  0  0  0  0  0  0  0  0  0
   18.1979   22.0433   21.0281 N   0  0  0  0  0  0  0  0  0  0  0  0
   18.1427   22.8713   22.1607 C   0  0  0  0  0  0  0  0  0  0  0  0
   19.1995   22.8670   23.0616 C   0  0  0  0  0  0  0  0  0  0  0  0
   19.0979   23.6617   24.1756 C   0  0  0  0  0  0  0  0  0  0  0  0
   18.0125   24.4119   24.3796 N   0  0  0  0  0  0  0  0  0  0  0  0
   16.9694   24.4462   23.5372 C   0  0  0  0  0  0  0  0  0  0  0  0
   15.8780   25.2672   23.8419 C   0  0  0  0  0  0  0  0  0  0  0  0
   14.8056   25.3048   22.9771 C   0  0  0  0  0  0  0  0  0  0  0  0
   13.4434   26.3304   23.3579 Cl  0  0  0  0  0  0  0  0  0  0  0  0
   14.8358   24.5329   21.8347 C   0  0  0  0  0  0  0  0  0  0  0  0
   15.9379   23.7160   21.5456 C   0  0  0  0  0  0  0  0  0  0  0  0
   17.0161   23.6661   22.3972 C   0  0  0  0  0  0  0  0  0  0  0  0
  1  2  1  0
  2  3  1  0
  3  4  1  0
  4  5  1  0
  3  6  1  0
  6  7  1  0
  7  8  1  0
  8  9  1  0
  9 10  1  0
 10 11  1  0
 11 12  1  0
 12 13  2  0
 13 14  1  0
 14 15  2  0
 15 16  1  0
 16 17  2  0
 17 18  1  0
 18 19  1  0
 18 20  2  0
 20 21  1  0
 21 22  2  0
 22 12  1  0
 22 16  1  0
M  CHG  1   3   1
M  END
$$$$
