
     RDKit          3D

 22 23  0  0  0  0  0  0  0  0999 V2000
   14.9914   46.3020   36.6848 C   0  0  0  0  0  0  0  0  0  0  0  0
   15.3328   45.9995   35.2294 C   0  0  0  0  0  0  0  0  0  0  0  0
   14.1874   46.1636   34.3556 N   0  0  0  0  0  4  0  0  0  0  0  0
   14.6789   45.8265   33.0183 C   0  0  0  0  0  0  0  0  0  0  0  0
   14.6140   46.9908   32.0810 C   0  0  0  0  0  0  0  0  0  0  0  0
   13.0977   45.3515   34.7523 C   0  0  0  0  0  0  0  0  0  0  0  0
   11.8395   45.5337   33.9706 C   0  0  0  0  0  0  0  0  0  0  0  0
   10.8828   44.1293   33.5378 S   0  0  0  0  0  0  0  0  0  0  0  0
   11.2398   42.6411   34.4270 C   0  0  0  0  0  0  0  0  0  0  0  0
   11.5722   41.5417   33.4090 C   0  0  0  0  0  0  0  0  0  0  0  0
   12.3443   42.1302   32.3247 N   0  0  0  0  0  0  0  0  0  0  0  0
   12.9303   41.3727   31.2979 C   0  0  0  0  0  0  0  0  0  0  0  0
   12.7393   41.7519   29.9757 C   0  0  0  0  0  0  0  0  0  0  0  0
   13.2966   40.9697   28.9957 C   0  0  0  0  0  0  0  0  0  0  0  0
   13.9985   39.8791   29.3125 N   0  0  0  0  0  0  0  0  0  0  0  0
   14.2071   39.4758   30.5745 C   0  0  0  0  0  0  0  0  0  0  0  0
   14.9583   38.3172   30.8010 C   0  0  0  0  0  0  0  0  0  0  0  0
   15.1749   37.9018   32.0971 C   0  0  0  0  0  0  0  0  0  0  0  0
   16.1132   36.4553   32.3794 Cl  0  0  0  0  0  0  0  0  0  0  0  0
   14.6460   38.6380   33.1364 C   0  0  0  0  0  0  0  0  0  0  0  0
   13.8956   39.7965   32.8905 C   0  0  0  0  0  0  0  0  0  0  0  0
   13.6697   40.2253   31.6039 C   0  0  0  0  0  0  0  0  0  0  0  0
  1  2  1  0
  2  3  1  0
  3  4  1  0
  4  5  1  0
  3  6  1  0
  6  7  1  0
  7  8  1  0
  8  9  1  0
  9 10  1  0
 10 11  1  0
 11 12  1  0
 12 13  2  0
 13 14  1  0
 14 15  2  0
 15 16  1  0
 16 17  2  0
 17 18  1  0
 18 19  1  0
 18 20  2  0
 20 21  1  0
 21 22  2  0
 22 12  1  0
 22 16  1  0
M  CHG  1   3   1
M  END
$$$$
