
     RDKit          3D

 24 26  0  0  0  0  0  0  0  0999 V2000
   10.3518   68.6589   33.9260 C   0  0  0  0  0  0  0  0  0  0  0  0
   11.1547   67.9033   33.0354 O   0  0  0  0  0  0  0  0  0  0  0  0
   11.0033   66.5245   32.9509 C   0  0  0  0  0  0  0  0  0  0  0  0
   11.6733   65.6824   32.1128 C   0  0  0  0  0  0  0  0  0  0  0  0
   11.4402   64.3243   32.1163 C   0  0  0  0  0  0  0  0  0  0  0  0
   10.5219   63.7351   32.9606 C   0  0  0  0  0  0  0  0  0  0  0  0
   10.3465   62.2891   32.8892 C   0  0  0  0  0  0  0  0  0  0  0  0
   11.2363   61.4623   32.2363 C   0  0  0  0  0  0  0  0  0  0  0  0
   11.0131   60.0901   32.2036 C   0  0  0  0  0  0  0  0  0  0  0  0
   11.7899   59.2880   31.6237 O   0  0  0  0  0  0  0  0  0  0  0  0
    9.8810   59.5826   32.8403 C   0  0  0  0  0  0  0  0  0  0  0  0
    9.5682   58.2382   32.8664 C   0  0  0  0  0  0  0  0  0  0  0  0
   10.4325   57.3878   32.2263 O   0  0  0  0  0  0  0  0  0  0  0  0
    8.4235   57.8045   33.5200 C   0  0  0  0  0  0  0  0  0  0  0  0
    8.2205   56.4317   33.4746 O   0  0  0  0  0  0  0  0  0  0  0  0
    8.0272   55.7229   32.2706 C   0  0  0  0  0  0  0  0  0  0  0  0
    7.5689   58.6988   34.1594 C   0  0  0  0  0  0  0  0  0  0  0  0
    6.4953   58.0901   34.7473 O   0  0  0  0  0  0  0  0  0  0  0  0
    5.4029   58.7998   35.3148 C   0  0  0  0  0  0  0  0  0  0  0  0
    7.9020   60.0394   34.1203 C   0  0  0  0  0  0  0  0  0  0  0  0
    9.0385   60.4813   33.4728 C   0  0  0  0  0  0  0  0  0  0  0  0
    9.2980   61.7675   33.4724 O   0  0  0  0  0  0  0  0  0  0  0  0
    9.8482   64.5723   33.8017 C   0  0  0  0  0  0  0  0  0  0  0  0
   10.0869   65.9314   33.7927 C   0  0  0  0  0  0  0  0  0  0  0  0
  1  2  1  0
  2  3  1  0
  3  4  2  0
  4  5  1  0
  5  6  2  0
  6  7  1  0
  7  8  2  0
  8  9  1  0
  9 10  2  0
  9 11  1  0
 11 12  2  0
 12 13  1  0
 12 14  1  0
 14 15  1  0
 15 16  1  0
 14 17  2  0
 17 18  1  0
 18 19  1  0
 17 20  1  0
 20 21  2  0
 21 22  1  0
  6 23  1  0
 23 24  2  0
 24  3  1  0
 22  7  1  0
 21 11  1  0
M  END
$$$$
