
     RDKit          3D

 23 25  0  0  0  0  0  0  0  0999 V2000
  140.0499  152.2892  151.0909 N   0  0  0  0  0  0  0  0  0  0  0  0
  139.8872  151.7365  149.8676 O   0  0  0  0  0  0  0  0  0  0  0  0
  138.5040  151.8475  149.5860 C   0  0  0  0  0  0  0  0  0  0  0  0
  138.1884  152.8408  148.6504 N   0  0  0  0  0  0  0  0  0  0  0  0
  138.4181  152.7079  147.2992 C   0  0  0  0  0  0  0  0  0  0  0  0
  139.2059  151.4904  146.8244 C   0  0  0  0  0  0  0  0  0  0  0  0
  139.0582  151.7843  144.9778 S   0  0  0  0  0  0  0  0  0  0  0  0
  137.3197  151.6364  144.7490 N   0  0  0  0  0  0  0  0  0  0  0  0
  136.3303  152.5400  144.3823 C   0  0  0  0  0  0  0  0  0  0  0  0
  135.2904  151.9383  143.6179 C   0  0  0  0  0  0  0  0  0  0  0  0
  134.2018  152.6147  143.1569 C   0  0  0  0  0  0  0  0  0  0  0  0
  132.9726  151.7590  142.2120 Cl  0  0  0  0  0  0  0  0  0  0  0  0
  134.0766  153.9521  143.4317 C   0  0  0  0  0  0  0  0  0  0  0  0
  132.6633  154.8011  142.8262 Cl  0  0  0  0  0  0  0  0  0  0  0  0
  135.0486  154.5567  144.1571 C   0  0  0  0  0  0  0  0  0  0  0  0
  136.2134  153.8870  144.6632 C   0  0  0  0  0  0  0  0  0  0  0  0
  137.1002  154.7292  145.3679 N   0  0  0  0  0  0  0  0  0  0  0  0
  138.4686  154.7108  145.7352 C   0  0  0  0  0  0  0  0  0  0  0  0
  139.3146  155.7138  145.1920 C   0  0  0  0  0  0  0  0  0  0  0  0
  140.6415  155.8665  145.4389 C   0  0  0  0  0  0  0  0  0  0  0  0
  141.2165  154.9592  146.3007 C   0  0  0  0  0  0  0  0  0  0  0  0
  140.4461  153.9608  146.8636 C   0  0  0  0  0  0  0  0  0  0  0  0
  139.0998  153.8425  146.5845 C   0  0  0  0  0  0  0  0  0  0  0  0
  1  2  1  0
  2  3  1  0
  3  4  1  0
  4  5  1  0
  5  6  1  0
  6  7  1  0
  7  8  1  0
  8  9  1  0
  9 10  2  0
 10 11  1  0
 11 12  1  0
 11 13  2  0
 13 14  1  0
 13 15  1  0
 15 16  2  0
 16 17  1  0
 17 18  1  0
 18 19  2  0
 19 20  1  0
 20 21  2  0
 21 22  1  0
 22 23  2  0
 23  5  1  0
 16  9  1  0
 23 18  1  0
M  END
$$$$
