
     RDKit          3D

 26 26  0  0  0  0  0  0  0  0999 V2000
  151.3578  147.1436  145.3287 C   0  0  0  0  0  0  0  0  0  0  0  0
  151.1384  147.8433  143.6125 C   0  0  0  0  0  0  0  0  0  0  0  0
  150.9116  146.6403  143.1067 C   0  0  0  0  0  0  0  0  0  0  0  0
  150.7719  146.4681  141.7494 C   0  0  0  0  0  0  0  0  0  0  0  0
  150.6736  145.1342  141.2156 N   0  0  0  0  0  0  0  0  0  0  0  0
  150.6450  145.0014  139.9403 C   0  0  0  0  0  0  0  0  0  0  0  0
  150.6607  145.1347  138.6899 N   0  0  0  0  0  0  0  0  0  0  0  0
  151.3677  149.0588  144.1308 C   0  0  0  0  0  0  0  0  0  0  0  0
  152.7794  149.3665  144.4911 C   0  0  0  0  0  0  0  0  0  0  0  0
  153.2365  150.5348  144.7627 C   0  0  0  0  0  0  0  0  0  0  0  0
  154.5738  150.8551  145.0710 N   0  0  0  0  0  0  0  0  0  0  0  0
  154.9275  152.2097  145.2952 C   0  0  0  0  0  0  0  0  0  0  0  0
  156.3906  152.5399  145.5780 C   0  0  0  0  0  0  0  0  0  0  0  0
  157.0070  151.6263  146.9471 Cl  0  0  0  0  0  0  0  0  0  0  0  0
  154.0927  153.1333  145.3286 N   0  0  0  0  0  0  0  0  0  0  0  0
  154.2545  154.4977  145.2729 C   0  0  0  0  0  0  0  0  0  0  0  0
  155.2275  155.0617  144.4244 C   0  0  0  0  0  0  0  0  0  0  0  0
  155.4371  156.3956  144.2779 C   0  0  0  0  0  0  0  0  0  0  0  0
  154.6313  157.2626  145.0217 C   0  0  0  0  0  0  0  0  0  0  0  0
  153.6691  156.7675  145.8644 C   0  0  0  0  0  0  0  0  0  0  0  0
  153.4628  155.3854  146.0057 C   0  0  0  0  0  0  0  0  0  0  0  0
  152.4604  154.8956  146.9575 C   0  0  0  0  0  0  0  0  0  0  0  0
  152.1394  155.6218  148.1037 N   0  0  0  0  0  0  0  0  0  0  0  0
  151.1376  155.2256  148.9986 C   0  0  0  0  0  0  0  0  0  0  0  0
  151.5859  155.3622  150.4444 C   0  0  0  0  0  0  0  0  0  0  0  0
  151.2190  154.2209  151.1684 O   0  0  0  0  0  0  0  0  0  0  0  0
  1  2  1  0
  2  3  1  0
  3  4  2  3
  4  5  1  0
  5  6  2  0
  6  7  2  0
  2  8  2  3
  8  9  1  0
  9 10  2  3
 10 11  1  0
 11 12  1  0
 12 13  1  0
 13 14  1  0
 12 15  2  3
 15 16  1  0
 16 17  2  0
 17 18  1  0
 18 19  2  0
 19 20  1  0
 20 21  2  0
 21 22  1  0
 22 23  1  0
 23 24  1  0
 24 25  1  0
 25 26  1  0
 21 16  1  0
M  END
$$$$
