
     RDKit          3D

 23 25  0  0  0  0  0  0  0  0999 V2000
  127.5433  144.6741  152.2914 C   0  0  0  0  0  0  0  0  0  0  0  0
  127.3720  145.2311  150.9836 O   0  0  0  0  0  0  0  0  0  0  0  0
  127.4464  144.3574  149.8951 C   0  0  0  0  0  0  0  0  0  0  0  0
  127.1495  144.8267  148.6323 C   0  0  0  0  0  0  0  0  0  0  0  0
  127.2180  143.9700  147.5335 C   0  0  0  0  0  0  0  0  0  0  0  0
  127.5799  142.6553  147.6925 C   0  0  0  0  0  0  0  0  0  0  0  0
  127.6691  141.7051  146.5685 C   0  0  0  0  0  0  0  0  0  0  0  0
  127.8962  142.0945  145.2678 C   0  0  0  0  0  0  0  0  0  0  0  0
  127.9770  141.1957  144.2284 C   0  0  0  0  0  0  0  0  0  0  0  0
  128.1841  141.5437  143.0379 O   0  0  0  0  0  0  0  0  0  0  0  0
  127.8227  139.8603  144.5171 C   0  0  0  0  0  0  0  0  0  0  0  0
  127.8870  138.8842  143.5454 C   0  0  0  0  0  0  0  0  0  0  0  0
  128.1173  139.3022  142.2387 O   0  0  0  0  0  1  0  0  0  0  0  0
  127.7328  137.5498  143.8338 C   0  0  0  0  0  0  0  0  0  0  0  0
  127.7982  136.5653  142.8500 O   0  0  0  0  0  0  0  0  0  0  0  0
  127.5063  137.1858  145.1445 C   0  0  0  0  0  0  0  0  0  0  0  0
  127.3512  135.8369  145.4312 O   0  0  0  0  0  0  0  0  0  0  0  0
  127.1771  135.4018  146.7870 C   0  0  0  0  0  0  0  0  0  0  0  0
  127.4401  138.1525  146.1243 C   0  0  0  0  0  0  0  0  0  0  0  0
  127.5980  139.5121  145.8250 C   0  0  0  0  0  0  0  0  0  0  0  0
  127.5317  140.4160  146.7703 O   0  0  0  0  0  0  0  0  0  0  0  0
  127.8763  142.1885  148.9561 C   0  0  0  0  0  0  0  0  0  0  0  0
  127.8096  143.0337  150.0469 C   0  0  0  0  0  0  0  0  0  0  0  0
  1  2  1  0
  2  3  1  0
  3  4  2  0
  4  5  1  0
  5  6  2  0
  6  7  1  0
  7  8  2  0
  8  9  1  0
  9 10  2  0
  9 11  1  0
 11 12  2  0
 12 13  1  0
 12 14  1  0
 14 15  1  0
 14 16  2  0
 16 17  1  0
 17 18  1  0
 16 19  1  0
 19 20  2  0
 20 21  1  0
  6 22  1  0
 22 23  2  0
 23  3  1  0
 21  7  1  0
 20 11  1  0
M  CHG  1  13  -1
M  END
$$$$
