
     RDKit          3D

 23 25  0  0  0  0  0  0  0  0999 V2000
  126.9813  147.5049  148.7150 C   0  0  0  0  0  0  0  0  0  0  0  0
  127.4768  146.2065  148.3710 O   0  0  0  0  0  0  0  0  0  0  0  0
  127.9064  145.3820  149.4147 C   0  0  0  0  0  0  0  0  0  0  0  0
  127.9163  144.0145  149.2335 C   0  0  0  0  0  0  0  0  0  0  0  0
  128.3417  143.1753  150.2635 C   0  0  0  0  0  0  0  0  0  0  0  0
  128.7541  143.6957  151.4651 C   0  0  0  0  0  0  0  0  0  0  0  0
  129.2136  142.8577  152.5880 C   0  0  0  0  0  0  0  0  0  0  0  0
  129.0936  141.4865  152.6043 C   0  0  0  0  0  0  0  0  0  0  0  0
  129.5272  140.7170  153.6600 C   0  0  0  0  0  0  0  0  0  0  0  0
  129.4211  139.4642  153.6823 O   0  0  0  0  0  0  0  0  0  0  0  0
  130.1006  141.3582  154.7327 C   0  0  0  0  0  0  0  0  0  0  0  0
  130.5655  140.6755  155.8368 C   0  0  0  0  0  0  0  0  0  0  0  0
  130.4332  139.2907  155.8301 O   0  0  0  0  0  1  0  0  0  0  0  0
  131.1384  141.3162  156.9087 C   0  0  0  0  0  0  0  0  0  0  0  0
  131.6074  140.6240  158.0231 O   0  0  0  0  0  0  0  0  0  0  0  0
  131.2469  142.6903  156.8677 C   0  0  0  0  0  0  0  0  0  0  0  0
  131.8262  143.3332  157.9525 O   0  0  0  0  0  0  0  0  0  0  0  0
  131.8869  144.7658  157.9954 C   0  0  0  0  0  0  0  0  0  0  0  0
  130.7858  143.3834  155.7696 C   0  0  0  0  0  0  0  0  0  0  0  0
  130.2023  142.7254  154.6790 C   0  0  0  0  0  0  0  0  0  0  0  0
  129.7700  143.4018  153.6442 O   0  0  0  0  0  0  0  0  0  0  0  0
  128.7433  145.0632  151.6438 C   0  0  0  0  0  0  0  0  0  0  0  0
  128.3227  145.8978  150.6262 C   0  0  0  0  0  0  0  0  0  0  0  0
  1  2  1  0
  2  3  1  0
  3  4  2  0
  4  5  1  0
  5  6  2  0
  6  7  1  0
  7  8  2  0
  8  9  1  0
  9 10  2  0
  9 11  1  0
 11 12  2  0
 12 13  1  0
 12 14  1  0
 14 15  1  0
 14 16  2  0
 16 17  1  0
 17 18  1  0
 16 19  1  0
 19 20  2  0
 20 21  1  0
  6 22  1  0
 22 23  2  0
 23  3  1  0
 21  7  1  0
 20 11  1  0
M  CHG  1  13  -1
M  END
$$$$
