
     RDKit          3D

 19 20  0  0  0  0  0  0  0  0999 V2000
   35.6026   28.2436   11.6949 O   0  0  0  0  0  0  0  0  0  0  0  0
   35.5422   27.3507   10.6241 C   0  0  0  0  0  0  0  0  0  0  0  0
   34.6490   26.1573   10.9751 C   0  0  0  0  0  0  0  0  0  0  0  0
   35.2186   25.5326   12.1270 N   0  0  0  0  0  0  0  0  0  0  0  0
   36.0312   24.3848   11.8283 C   0  0  0  0  0  0  0  0  0  0  0  0
   35.6597   23.1829   12.5757 C   0  0  0  0  0  0  0  0  0  0  0  0
   34.3848   22.5472   12.5917 N   0  0  0  0  0  0  0  0  0  0  0  0
   34.1599   21.2689   13.1441 C   0  0  0  0  0  0  0  0  0  0  0  0
   32.9975   20.6777   12.9543 C   0  0  0  0  0  0  0  0  0  0  0  0
   32.7275   19.7901   11.8472 C   0  0  0  0  0  0  0  0  0  0  0  0
   31.4951   19.3702   11.6395 C   0  0  0  0  0  0  0  0  0  0  0  0
   31.0248   18.1986    9.9524 I   0  0  0  0  0  0  0  0  0  0  0  0
   36.6702   22.7494   13.2477 N   0  0  0  0  0  0  0  0  0  0  0  0
   37.8065   23.5592   13.0557 C   0  0  0  0  0  0  0  0  0  0  0  0
   39.1087   23.4820   13.5700 C   0  0  0  0  0  0  0  0  0  0  0  0
   40.0680   24.4132   13.2272 C   0  0  0  0  0  0  0  0  0  0  0  0
   39.7068   25.4179   12.3662 C   0  0  0  0  0  0  0  0  0  0  0  0
   38.4317   25.4891   11.8658 C   0  0  0  0  0  0  0  0  0  0  0  0
   37.4528   24.5713   12.1920 C   0  0  0  0  0  0  0  0  0  0  0  0
  1  2  1  0
  2  3  1  0
  3  4  1  0
  4  5  1  0
  5  6  1  0
  6  7  1  0
  7  8  1  0
  8  9  2  3
  9 10  1  0
 10 11  2  3
 11 12  1  0
  6 13  2  0
 13 14  1  0
 14 15  2  0
 15 16  1  0
 16 17  2  0
 17 18  1  0
 18 19  2  0
 19  5  1  0
 19 14  1  0
M  END
$$$$
