
     RDKit          3D

 19 20  0  0  0  0  0  0  0  0999 V2000
   29.2551   46.5718    9.2486 O   0  0  0  0  0  0  0  0  0  0  0  0
   29.3505   45.2764    9.7590 C   0  0  0  0  0  0  0  0  0  0  0  0
   28.7429   45.2108   11.1631 C   0  0  0  0  0  0  0  0  0  0  0  0
   29.8151   44.9533   12.0716 N   0  0  0  0  0  0  0  0  0  0  0  0
   29.4436   45.0486   13.4571 C   0  0  0  0  0  0  0  0  0  0  0  0
   30.3088   45.9269   14.2455 C   0  0  0  0  0  0  0  0  0  0  0  0
   30.5802   47.3036   13.9990 N   0  0  0  0  0  0  0  0  0  0  0  0
   31.2177   48.1496   14.9304 C   0  0  0  0  0  0  0  0  0  0  0  0
   31.6816   49.3169   14.5321 C   0  0  0  0  0  0  0  0  0  0  0  0
   31.7767   49.7037   13.1436 C   0  0  0  0  0  0  0  0  0  0  0  0
   30.6769   49.9833   12.4725 C   0  0  0  0  0  0  0  0  0  0  0  0
   30.7753   50.8086   10.5362 I   0  0  0  0  0  0  0  0  0  0  0  0
   30.8183   45.2755   15.2338 N   0  0  0  0  0  0  0  0  0  0  0  0
   30.3883   43.9344   15.2477 C   0  0  0  0  0  0  0  0  0  0  0  0
   30.6727   42.8691   16.1140 C   0  0  0  0  0  0  0  0  0  0  0  0
   30.1183   41.6207   15.9163 C   0  0  0  0  0  0  0  0  0  0  0  0
   29.2791   41.4548   14.8442 C   0  0  0  0  0  0  0  0  0  0  0  0
   29.0041   42.5000   13.9996 C   0  0  0  0  0  0  0  0  0  0  0  0
   29.5448   43.7586   14.1739 C   0  0  0  0  0  0  0  0  0  0  0  0
  1  2  1  0
  2  3  1  0
  3  4  1  0
  4  5  1  0
  5  6  1  0
  6  7  1  0
  7  8  1  0
  8  9  2  3
  9 10  1  0
 10 11  2  3
 11 12  1  0
  6 13  2  0
 13 14  1  0
 14 15  2  0
 15 16  1  0
 16 17  2  0
 17 18  1  0
 18 19  2  0
 19  5  1  0
 19 14  1  0
M  END
$$$$
