
     RDKit          3D

 28 30  0  0  0  0  0  0  0  0999 V2000
  126.0055  146.0291  146.6122 C   0  0  0  0  0  0  0  0  0  0  0  0
  125.4871  146.4555  147.8578 O   0  0  0  0  0  0  0  0  0  0  0  0
  126.1385  146.1570  149.0470 C   0  0  0  0  0  0  0  0  0  0  0  0
  125.4895  146.2231  150.2620 C   0  0  0  0  0  0  0  0  0  0  0  0
  126.1188  145.9312  151.4476 C   0  0  0  0  0  0  0  0  0  0  0  0
  127.4450  145.5568  151.4485 C   0  0  0  0  0  0  0  0  0  0  0  0
  128.1088  145.2450  152.7434 C   0  0  0  0  0  0  0  0  0  0  0  0
  128.8904  144.2258  152.8993 N   0  0  0  0  0  0  0  0  0  0  0  0
  129.4554  143.9930  154.0678 C   0  0  0  0  0  0  0  0  0  0  0  0
  130.3511  142.9200  154.4456 N   0  0  0  0  0  0  0  0  0  0  0  0
  131.0077  142.9231  155.6939 C   0  0  0  0  0  0  0  0  0  0  0  0
  130.5480  143.7068  156.5689 O   0  0  0  0  0  0  0  0  0  0  0  0
  132.1577  142.0879  156.0098 C   0  0  0  0  0  0  0  0  0  0  0  0
  133.3414  142.1450  155.3193 C   0  0  0  0  0  0  0  0  0  0  0  0
  134.4161  141.3475  155.6332 C   0  0  0  0  0  0  0  0  0  0  0  0
  134.2614  140.4628  156.6952 C   0  0  0  0  0  0  0  0  0  0  0  0
  133.0940  140.3721  157.4144 C   0  0  0  0  0  0  0  0  0  0  0  0
  133.0031  139.4488  158.4812 N   0  0  0  0  0  0  0  0  0  0  0  0
  134.2287  139.4005  159.6873 S   0  0  0  0  0  6  0  0  0  0  0  0
  134.5936  141.0605  160.2696 C   0  0  0  0  0  0  0  0  0  0  0  0
  135.4867  138.7352  159.2239 O   0  0  0  0  0  0  0  0  0  0  0  0
  133.6785  138.5863  160.8311 O   0  0  0  0  0  0  0  0  0  0  0  0
  132.0449  141.1937  157.0602 C   0  0  0  0  0  0  0  0  0  0  0  0
  128.8561  145.2848  155.0172 S   0  0  0  0  0  0  0  0  0  0  0  0
  127.8993  146.0570  153.8302 C   0  0  0  0  0  0  0  0  0  0  0  0
  127.0430  147.2969  153.9158 C   0  0  0  0  0  0  0  0  0  0  0  0
  128.1128  145.4837  150.2508 C   0  0  0  0  0  0  0  0  0  0  0  0
  127.4653  145.7802  149.0708 C   0  0  0  0  0  0  0  0  0  0  0  0
  1  2  1  0
  2  3  1  0
  3  4  2  0
  4  5  1  0
  5  6  2  0
  6  7  1  0
  7  8  1  0
  8  9  2  0
  9 10  1  0
 10 11  1  0
 11 12  2  0
 11 13  1  0
 13 14  2  0
 14 15  1  0
 15 16  2  0
 16 17  1  0
 17 18  1  0
 18 19  1  0
 19 20  1  0
 19 21  2  0
 19 22  2  0
 17 23  2  0
  9 24  1  0
 24 25  1  0
 25 26  1  0
  6 27  1  0
 27 28  2  0
 28  3  1  0
 25  7  2  0
 23 13  1  0
M  END
$$$$
