
     RDKit          3D

  9  8  0  0  0  0  0  0  0  0999 V2000
   14.8660  -13.9257  -55.6065 Cl  0  0  0  0  0  0  0  0  0  0  0  0
   16.1045  -13.3706  -56.7097 C   0  0  0  0  0  0  0  0  0  0  0  0
   16.9972  -14.1963  -57.2182 C   0  0  0  0  0  0  0  0  0  0  0  0
   17.9605  -13.7467  -58.1999 C   0  0  0  0  0  0  0  0  0  0  0  0
   18.8144  -14.5494  -58.7874 C   0  0  0  0  0  0  0  0  0  0  0  0
   18.6205  -16.0034  -58.7511 C   0  0  0  0  0  0  0  0  0  0  0  0
   17.9816  -16.6394  -60.2836 Cl  0  0  0  0  0  0  0  0  0  0  0  0
   19.9252  -14.0116  -59.4577 N   0  0  0  0  0  0  0  0  0  0  0  0
   20.3753  -12.0052  -59.5938 I   0  0  0  0  0  0  0  0  0  0  0  0
  1  2  1  0
  2  3  2  3
  3  4  1  0
  4  5  2  3
  5  6  1  0
  6  7  1  0
  5  8  1  0
  8  9  1  0
M  END
$$$$
