
     RDKit          3D

 21 22  0  0  0  0  0  0  0  0999 V2000
  156.7486  152.8840  152.8835 C   0  0  0  0  0  0  0  0  0  0  0  0
  157.2095  153.9386  151.8499 C   0  0  0  0  0  0  0  0  0  0  0  0
  156.9177  153.3386  150.5172 C   0  0  0  0  0  0  0  0  0  0  0  0
  155.5807  153.3840  150.1986 O   0  0  0  0  0  0  0  0  0  0  0  0
  155.0517  153.4898  148.9472 C   0  0  0  0  0  0  0  0  0  0  0  0
  155.8950  153.2294  147.8532 C   0  0  0  0  0  0  0  0  0  0  0  0
  155.3708  153.3291  146.6035 C   0  0  0  0  0  0  0  0  0  0  0  0
  154.0355  153.6771  146.3385 C   0  0  0  0  0  0  0  0  0  0  0  0
  153.6413  153.7388  144.9589 C   0  0  0  0  0  0  0  0  0  0  0  0
  152.7443  152.9400  144.5136 O   0  0  0  0  0  0  0  0  0  0  0  0
  154.1687  154.6255  144.0240 N   0  0  0  0  0  0  0  0  0  0  0  0
  153.6635  154.7701  142.6814 C   0  0  0  0  0  0  0  0  0  0  0  0
  153.4091  153.8467  141.7054 C   0  0  0  0  0  0  0  0  0  0  0  0
  152.9227  154.5336  140.5772 C   0  0  0  0  0  0  0  0  0  0  0  0
  152.5373  153.8510  139.3145 C   0  0  0  0  0  0  0  0  0  0  0  0
  152.9097  155.7794  140.9164 O   0  0  0  0  0  0  0  0  0  0  0  0
  153.3333  155.9517  142.1307 N   0  0  0  0  0  0  0  0  0  0  0  0
  153.2577  153.9190  147.4258 C   0  0  0  0  0  0  0  0  0  0  0  0
  151.9441  154.2646  147.2680 O   0  0  0  0  0  0  0  0  0  0  0  0
  151.0021  154.4775  148.2730 C   0  0  0  0  0  0  0  0  0  0  0  0
  153.7402  153.8322  148.7512 C   0  0  0  0  0  0  0  0  0  0  0  0
  1  2  1  0
  2  3  1  0
  3  4  1  0
  4  5  1  0
  5  6  2  0
  6  7  1  0
  7  8  2  0
  8  9  1  0
  9 10  2  0
  9 11  1  0
 11 12  1  0
 12 13  1  0
 13 14  2  0
 14 15  1  0
 14 16  1  0
 16 17  1  0
  8 18  1  0
 18 19  1  0
 19 20  1  0
 18 21  2  0
 21  5  1  0
 17 12  2  0
M  END
$$$$
