
     RDKit          3D

 23 25  0  0  0  0  0  0  0  0999 V2000
   24.1012   54.7789   33.9704 C   0  0  0  0  0  0  0  0  0  0  0  0
   23.8442   53.7022   34.0005 C   0  0  0  0  0  0  0  0  0  0  0  0
   23.4550   52.1701   34.0355 C   0  0  2  0  0  0  0  0  0  0  0  0
   23.8674   51.8648   35.5945 C   0  0  0  0  0  0  0  0  0  0  0  0
   25.2550   51.3742   35.5875 C   0  0  0  0  0  0  0  0  0  0  0  0
   24.3535   51.4267   33.3918 O   0  0  0  0  0  0  0  0  0  0  0  0
   24.6531   50.3038   32.7750 C   0  0  0  0  0  0  0  0  0  0  0  0
   23.7632   49.1961   32.6673 C   0  0  0  0  0  0  0  0  0  0  0  0
   24.0981   48.0250   32.0966 C   0  0  0  0  0  0  0  0  0  0  0  0
   23.5846   46.7767   31.8510 O   0  0  0  0  0  0  0  0  0  0  0  0
   25.4478   48.0999   31.6107 C   0  0  0  0  0  0  0  0  0  0  0  0
   26.3364   49.0795   31.6632 C   0  0  0  0  0  0  0  0  0  0  0  0
   27.5769   48.8023   31.1741 O   0  0  0  0  0  0  0  0  0  0  0  0
   28.4799   49.8037   31.3385 C   0  0  0  0  0  0  0  0  0  0  0  0
   29.7571   49.4446   30.9192 C   0  0  0  0  0  0  0  0  0  0  0  0
   30.0153   48.2783   30.2929 O   0  0  0  0  0  0  0  0  0  0  0  0
   30.8407   50.3075   31.1249 C   0  0  0  0  0  0  0  0  0  0  0  0
   30.5673   51.5542   31.7470 C   0  0  0  0  0  0  0  0  0  0  0  0
   29.2905   51.8714   32.1236 C   0  0  0  0  0  0  0  0  0  0  0  0
   28.2579   51.0055   31.9147 C   0  0  0  0  0  0  0  0  0  0  0  0
   26.9473   51.1955   32.3671 C   0  0  0  0  0  0  0  0  0  0  0  0
   26.6551   52.3301   32.9110 O   0  0  0  0  0  0  0  0  0  0  0  0
   25.9828   50.2361   32.2476 C   0  0  0  0  0  0  0  0  0  0  0  0
  1  2  3  0
  3  2  1  6
  3  4  1  0
  4  5  1  0
  3  6  1  0
  6  7  1  0
  7  8  2  0
  8  9  1  0
  9 10  1  0
  9 11  2  0
 11 12  1  0
 12 13  1  0
 13 14  1  0
 14 15  2  0
 15 16  1  0
 15 17  1  0
 17 18  2  0
 18 19  1  0
 19 20  2  0
 20 21  1  0
 21 22  2  0
 21 23  1  0
 23  7  1  0
 23 12  2  0
 20 14  1  0
M  END
$$$$
