
     RDKit          3D

 21 23  0  0  0  0  0  0  0  0999 V2000
  128.5181  145.7253  150.8008 C   0  0  0  0  0  0  0  0  0  0  0  0
  127.9973  144.9155  149.6645 C   0  0  0  0  0  0  0  0  0  0  0  0
  128.0368  143.5428  149.7341 C   0  0  0  0  0  0  0  0  0  0  0  0
  127.5652  142.7416  148.7088 C   0  0  0  0  0  0  0  0  0  0  0  0
  127.6023  141.2603  148.7892 C   0  0  0  0  0  0  0  0  0  0  0  0
  127.9532  140.6132  149.9498 C   0  0  0  0  0  0  0  0  0  0  0  0
  127.8479  138.9730  149.4802 S   0  0  0  0  0  0  0  0  0  0  0  0
  127.3703  139.2108  147.8601 C   0  0  0  0  0  0  0  0  0  0  0  0
  127.1142  138.1925  146.8700 N   0  0  0  0  0  0  0  0  0  0  0  0
  127.4530  138.4464  145.5366 C   0  0  0  0  0  0  0  0  0  0  0  0
  127.3686  137.4599  144.5808 C   0  0  0  0  0  0  0  0  0  0  0  0
  127.7159  137.7075  143.2564 C   0  0  0  0  0  0  0  0  0  0  0  0
  128.1601  138.9591  142.8517 C   0  0  0  0  0  0  0  0  0  0  0  0
  128.4982  139.1647  141.5199 O   0  0  0  0  0  0  0  0  0  0  0  0
  128.2475  139.9494  143.7985 C   0  0  0  0  0  0  0  0  0  0  0  0
  127.8948  139.6758  145.1128 C   0  0  0  0  0  0  0  0  0  0  0  0
  127.3166  140.5250  147.7622 N   0  0  0  0  0  0  0  0  0  0  0  0
  127.0597  143.3831  147.6259 C   0  0  0  0  0  0  0  0  0  0  0  0
  127.0055  144.7654  147.5245 C   0  0  0  0  0  0  0  0  0  0  0  0
  127.4781  145.5405  148.5529 C   0  0  0  0  0  0  0  0  0  0  0  0
  127.4468  146.9103  148.4990 F   0  0  0  0  0  0  0  0  0  0  0  0
  1  2  1  0
  2  3  2  0
  3  4  1  0
  4  5  1  0
  5  6  2  0
  6  7  1  0
  7  8  1  0
  8  9  1  0
  9 10  1  0
 10 11  2  0
 11 12  1  0
 12 13  2  0
 13 14  1  0
 13 15  1  0
 15 16  2  0
  8 17  2  0
  4 18  2  0
 18 19  1  0
 19 20  2  0
 20 21  1  0
 20  2  1  0
 17  5  1  0
 16 10  1  0
M  END
$$$$
