
     RDKit          3D

 22 24  0  0  0  0  0  0  0  0999 V2000
  111.0161   60.4584  -54.5870 C   0  0  0  0  0  0  0  0  0  0  0  0
  111.5183   60.8176  -55.9896 C   0  0  0  0  0  0  0  0  0  0  0  0
  112.5997   59.9092  -56.3727 N   0  0  0  0  0  0  0  0  0  0  0  0
  113.7754   59.7219  -55.7405 C   0  0  0  0  0  0  0  0  0  0  0  0
  114.3181   60.2856  -54.5969 C   0  0  0  0  0  0  0  0  0  0  0  0
  115.5680   59.9193  -54.1439 C   0  0  0  0  0  0  0  0  0  0  0  0
  116.3277   58.9792  -54.8086 C   0  0  0  0  0  0  0  0  0  0  0  0
  115.7880   58.4174  -55.9475 C   0  0  0  0  0  0  0  0  0  0  0  0
  114.5376   58.7781  -56.4083 C   0  0  0  0  0  0  0  0  0  0  0  0
  113.7850   58.4045  -57.4595 N   0  0  0  0  0  0  0  0  0  0  0  0
  114.2095   57.4088  -58.4472 C   0  0  0  0  0  0  0  0  0  0  0  0
  113.1913   56.3148  -58.5027 C   0  0  1  0  0  0  0  0  0  0  0  0
  113.6487   55.1508  -57.8739 O   0  0  0  0  0  0  0  0  0  0  0  0
  111.8938   56.7408  -57.9383 C   0  0  0  0  0  0  0  0  0  0  0  0
  111.7356   56.6686  -56.5497 C   0  0  0  0  0  0  0  0  0  0  0  0
  110.5495   57.0536  -55.9682 C   0  0  0  0  0  0  0  0  0  0  0  0
  109.4774   57.5199  -56.6980 C   0  0  0  0  0  0  0  0  0  0  0  0
  107.9745   58.0061  -55.9438 Cl  0  0  0  0  0  0  0  0  0  0  0  0
  109.6346   57.5906  -58.0657 C   0  0  0  0  0  0  0  0  0  0  0  0
  110.8340   57.2017  -58.6577 C   0  0  0  0  0  0  0  0  0  0  0  0
  112.6257   59.0798  -57.4400 C   0  0  0  0  0  0  0  0  0  0  0  0
  111.6452   58.9932  -58.2854 N   0  0  0  0  0  0  0  0  0  0  0  0
  1  2  1  0
  2  3  1  0
  3  4  1  0
  4  5  2  0
  5  6  1  0
  6  7  2  0
  7  8  1  0
  8  9  2  0
  9 10  1  0
 10 11  1  0
 11 12  1  0
 12 13  1  1
 12 14  1  0
 14 15  2  0
 15 16  1  0
 16 17  2  0
 17 18  1  0
 17 19  1  0
 19 20  2  0
 10 21  1  0
 21 22  2  0
 21  3  1  0
  9  4  1  0
 20 14  1  0
M  END
$$$$
