
     RDKit          3D

 18 20  0  0  0  0  0  0  0  0999 V2000
    1.4031   -6.9866  -25.3795 O   0  0  0  0  0  0  0  0  0  0  0  0
    0.1135   -6.6774  -24.9364 C   0  0  0  0  0  0  0  0  0  0  0  0
   -0.7962   -7.7878  -25.3911 C   0  0  0  0  0  0  0  0  0  0  0  0
   -0.9525   -8.8101  -24.6518 N   0  0  0  0  0  0  0  0  0  0  0  0
   -1.7165  -10.0067  -24.7767 C   0  0  0  0  0  0  0  0  0  0  0  0
   -1.7890  -10.7227  -23.4766 C   0  0  0  0  0  0  0  0  0  0  0  0
   -2.4506  -11.9159  -23.3170 C   0  0  0  0  0  0  0  0  0  0  0  0
   -2.4560  -12.4999  -22.0703 C   0  0  0  0  0  0  0  0  0  0  0  0
   -1.8348  -11.9526  -20.9773 C   0  0  0  0  0  0  0  0  0  0  0  0
   -1.8673  -12.7241  -19.4232 Cl  0  0  0  0  0  0  0  0  0  0  0  0
   -1.1712  -10.7582  -21.1321 C   0  0  0  0  0  0  0  0  0  0  0  0
   -0.3805  -10.0591  -19.7462 Cl  0  0  0  0  0  0  0  0  0  0  0  0
   -1.1606  -10.1604  -22.3898 C   0  0  0  0  0  0  0  0  0  0  0  0
   -3.0696   -9.8007  -25.3409 C   0  0  0  0  0  0  0  0  0  0  0  0
   -4.3075   -9.6827  -25.7822 C   0  0  0  0  0  0  0  0  0  0  0  0
   -3.4398   -8.8847  -26.4116 C   0  0  0  0  0  0  0  0  0  0  0  0
   -2.5696   -7.9760  -27.1578 C   0  0  0  0  0  0  0  0  0  0  0  0
   -1.4004   -7.4963  -26.6959 C   0  0  0  0  0  0  0  0  0  0  0  0
  1  2  1  0
  2  3  1  0
  3  4  2  0
  4  5  1  0
  5  6  1  0
  6  7  2  0
  7  8  1  0
  8  9  2  0
  9 10  1  0
  9 11  1  0
 11 12  1  0
 11 13  2  0
  5 14  1  0
 14 15  2  0
 15 16  2  0
 16 17  1  0
 17 18  2  0
 18  3  1  0
 13  6  1  0
 16 14  1  0
M  END
$$$$
