
     RDKit          3D

 25 26  0  0  0  0  0  0  0  0999 V2000
    3.3052   -3.3025  -59.0786 C   0  0  0  0  0  0  0  0  0  0  0  0
    3.0019   -3.7378  -57.7657 O   0  0  0  0  0  0  0  0  0  0  0  0
    1.9224   -4.5500  -57.4740 C   0  0  0  0  0  0  0  0  0  0  0  0
    1.7875   -4.9860  -56.1719 C   0  0  0  0  0  0  0  0  0  0  0  0
    2.7271   -4.5978  -55.2192 O   0  0  0  0  0  0  0  0  0  0  0  0
    0.7190   -5.7922  -55.8739 C   0  0  0  0  0  0  0  0  0  0  0  0
   -0.2135   -6.1667  -56.8598 C   0  0  0  0  0  0  0  0  0  0  0  0
   -1.2615   -6.9815  -56.4772 O   0  0  0  0  0  0  0  0  0  0  0  0
   -1.4161   -7.3174  -55.1222 C   0  0  0  0  0  0  0  0  0  0  0  0
   -0.0871   -5.7410  -58.1450 C   0  0  0  0  0  0  0  0  0  0  0  0
   -0.9981   -6.0837  -59.1956 C   0  0  0  0  0  0  0  0  0  0  0  0
   -0.5231   -6.4839  -60.3430 O   0  0  0  0  0  0  0  0  0  0  0  0
   -2.4362   -6.0489  -59.1677 C   0  0  0  0  0  0  0  0  0  0  0  0
   -3.1600   -6.6966  -60.0704 C   0  0  0  0  0  0  0  0  0  0  0  0
   -4.5899   -6.8539  -60.0531 C   0  0  0  0  0  0  0  0  0  0  0  0
   -5.3859   -5.8728  -59.5250 C   0  0  0  0  0  0  0  0  0  0  0  0
   -6.7804   -6.0230  -59.5066 C   0  0  0  0  0  0  0  0  0  0  0  0
   -7.3772   -7.1536  -60.0162 C   0  0  0  0  0  0  0  0  0  0  0  0
   -8.7806   -7.2844  -59.9879 O   0  0  0  0  0  0  0  0  0  0  0  0
   -9.5465   -6.2619  -59.3896 C   0  0  0  0  0  0  0  0  0  0  0  0
   -6.5764   -8.1288  -60.5418 C   0  0  0  0  0  0  0  0  0  0  0  0
   -7.1503   -9.2880  -61.0668 O   0  0  0  0  0  0  0  0  0  0  0  0
   -5.2042   -7.9744  -60.5567 C   0  0  0  0  0  0  0  0  0  0  0  0
   -4.1469   -9.3959  -61.3156 Br  0  0  0  0  0  0  0  0  0  0  0  0
    1.0003   -4.9253  -58.4300 C   0  0  0  0  0  0  0  0  0  0  0  0
  1  2  1  0
  2  3  1  0
  3  4  2  0
  4  5  1  0
  4  6  1  0
  6  7  2  0
  7  8  1  0
  8  9  1  0
  7 10  1  0
 10 11  1  0
 11 12  2  0
 11 13  1  0
 13 14  2  3
 14 15  1  0
 15 16  2  0
 16 17  1  0
 17 18  2  0
 18 19  1  0
 19 20  1  0
 18 21  1  0
 21 22  1  0
 21 23  2  0
 23 24  1  0
 10 25  2  0
 25  3  1  0
 23 15  1  0
M  END
$$$$
