
     RDKit          3D

 28 30  0  0  0  0  0  0  0  0999 V2000
  127.9988  143.4617  156.9062 C   0  0  0  0  0  0  0  0  0  0  0  0
  127.5590  144.5443  155.9634 C   0  0  0  0  0  0  0  0  0  0  0  0
  128.5059  144.7042  154.9517 O   0  0  0  0  0  0  0  0  0  0  0  0
  128.2738  144.6104  153.5952 C   0  0  0  0  0  0  0  0  0  0  0  0
  128.9766  143.6833  152.8596 C   0  0  0  0  0  0  0  0  0  0  0  0
  128.8050  143.5234  151.4954 C   0  0  0  0  0  0  0  0  0  0  0  0
  127.8866  144.3353  150.8597 C   0  0  0  0  0  0  0  0  0  0  0  0
  127.6852  144.1758  149.3932 C   0  0  0  0  0  0  0  0  0  0  0  0
  127.6339  143.0175  148.8208 N   0  0  0  0  0  0  0  0  0  0  0  0
  127.4556  142.9367  147.5100 C   0  0  0  0  0  0  0  0  0  0  0  0
  127.3715  141.7427  146.6931 N   0  0  0  0  0  0  0  0  0  0  0  0
  127.7657  141.9010  145.3249 C   0  0  0  0  0  0  0  0  0  0  0  0
  128.0095  143.0492  144.8640 O   0  0  0  0  0  0  0  0  0  0  0  0
  127.8937  140.7539  144.4410 C   0  0  0  0  0  0  0  0  0  0  0  0
  127.5399  139.5088  144.9200 C   0  0  0  0  0  0  0  0  0  0  0  0
  127.6467  138.4057  144.1175 C   0  0  0  0  0  0  0  0  0  0  0  0
  128.1066  138.4699  142.8038 C   0  0  0  0  0  0  0  0  0  0  0  0
  128.1668  137.2682  142.0936 N   0  0  0  0  0  0  0  0  0  0  0  0
  128.5721  137.1439  140.7431 C   0  0  0  0  0  0  0  0  0  0  0  0
  128.5604  135.8438  140.1118 N   0  0  0  0  0  0  0  0  0  0  0  0
  128.9455  138.1137  140.0568 O   0  0  0  0  0  0  0  0  0  0  0  0
  128.4534  139.6963  142.3370 C   0  0  0  0  0  0  0  0  0  0  0  0
  128.3455  140.8301  143.1563 C   0  0  0  0  0  0  0  0  0  0  0  0
  127.3540  144.5776  147.0515 S   0  0  0  0  0  0  0  0  0  0  0  0
  127.5503  145.2860  148.6007 C   0  0  0  0  0  0  0  0  0  0  0  0
  127.5721  146.7442  148.9865 C   0  0  0  0  0  0  0  0  0  0  0  0
  127.1738  145.2685  151.5786 C   0  0  0  0  0  0  0  0  0  0  0  0
  127.3728  145.4029  152.9566 C   0  0  0  0  0  0  0  0  0  0  0  0
  1  2  1  0
  2  3  1  0
  3  4  1  0
  4  5  2  0
  5  6  1  0
  6  7  2  0
  7  8  1  0
  8  9  1  0
  9 10  2  0
 10 11  1  0
 11 12  1  0
 12 13  2  0
 12 14  1  0
 14 15  2  0
 15 16  1  0
 16 17  2  0
 17 18  1  0
 18 19  1  0
 19 20  1  0
 19 21  2  0
 17 22  1  0
 22 23  2  0
 10 24  1  0
 24 25  1  0
 25 26  1  0
  7 27  1  0
 27 28  2  0
 28  4  1  0
 25  8  2  0
 23 14  1  0
M  END
$$$$
