
     RDKit          3D

 28 30  0  0  0  0  0  0  0  0999 V2000
  121.5143  149.3512  146.4276 C   0  0  0  0  0  0  0  0  0  0  0  0
  122.8876  149.3558  147.0343 C   0  0  0  0  0  0  0  0  0  0  0  0
  122.9963  148.3246  147.9673 O   0  0  0  0  0  0  0  0  0  0  0  0
  123.9781  147.3564  148.0022 C   0  0  0  0  0  0  0  0  0  0  0  0
  123.6127  146.0313  147.9319 C   0  0  0  0  0  0  0  0  0  0  0  0
  124.5331  144.9978  147.9601 C   0  0  0  0  0  0  0  0  0  0  0  0
  125.8705  145.3256  148.0635 C   0  0  0  0  0  0  0  0  0  0  0  0
  126.8759  144.2280  148.0917 C   0  0  0  0  0  0  0  0  0  0  0  0
  126.8355  143.2275  147.2737 N   0  0  0  0  0  0  0  0  0  0  0  0
  127.7565  142.2772  147.3476 C   0  0  0  0  0  0  0  0  0  0  0  0
  127.8797  141.0887  146.5277 N   0  0  0  0  0  0  0  0  0  0  0  0
  127.1556  141.1128  145.2918 C   0  0  0  0  0  0  0  0  0  0  0  0
  126.3310  142.0379  145.0579 O   0  0  0  0  0  0  0  0  0  0  0  0
  127.3502  140.0822  144.2852 C   0  0  0  0  0  0  0  0  0  0  0  0
  126.9076  140.3225  143.0002 C   0  0  0  0  0  0  0  0  0  0  0  0
  127.0733  139.3762  142.0259 C   0  0  0  0  0  0  0  0  0  0  0  0
  127.6821  138.1459  142.2646 C   0  0  0  0  0  0  0  0  0  0  0  0
  127.7880  137.2700  141.1811 N   0  0  0  0  0  0  0  0  0  0  0  0
  128.4844  136.0379  141.1996 C   0  0  0  0  0  0  0  0  0  0  0  0
  128.5722  135.2501  139.9911 N   0  0  0  0  0  0  0  0  0  0  0  0
  129.0361  135.5878  142.2214 O   0  0  0  0  0  0  0  0  0  0  0  0
  128.1158  137.9138  143.5296 C   0  0  0  0  0  0  0  0  0  0  0  0
  127.9481  138.8812  144.5318 C   0  0  0  0  0  0  0  0  0  0  0  0
  128.7363  142.8152  148.6374 S   0  0  0  0  0  0  0  0  0  0  0  0
  127.8894  144.2578  149.0142 C   0  0  0  0  0  0  0  0  0  0  0  0
  128.1814  145.2841  150.0805 C   0  0  0  0  0  0  0  0  0  0  0  0
  126.2557  146.6456  148.1350 C   0  0  0  0  0  0  0  0  0  0  0  0
  125.2981  147.6648  148.1037 C   0  0  0  0  0  0  0  0  0  0  0  0
  1  2  1  0
  2  3  1  0
  3  4  1  0
  4  5  2  0
  5  6  1  0
  6  7  2  0
  7  8  1  0
  8  9  1  0
  9 10  2  0
 10 11  1  0
 11 12  1  0
 12 13  2  0
 12 14  1  0
 14 15  2  0
 15 16  1  0
 16 17  2  0
 17 18  1  0
 18 19  1  0
 19 20  1  0
 19 21  2  0
 17 22  1  0
 22 23  2  0
 10 24  1  0
 24 25  1  0
 25 26  1  0
  7 27  1  0
 27 28  2  0
 28  4  1  0
 25  8  2  0
 23 14  1  0
M  END
$$$$
