
     RDKit          3D

 22 24  0  0  0  0  0  0  0  0999 V2000
   -1.5883   -8.6157  -58.7366 O   0  0  0  0  0  0  0  0  0  0  0  0
   -2.8075   -8.2493  -58.1578 C   0  0  0  0  0  0  0  0  0  0  0  0
   -2.7608   -6.7786  -57.8276 C   0  0  0  0  0  0  0  0  0  0  0  0
   -1.8540   -6.5089  -56.7117 N   0  0  0  0  0  0  0  0  0  0  0  0
   -0.7020   -5.7149  -56.8698 C   0  0  0  0  0  0  0  0  0  0  0  0
   -0.2899   -5.3351  -58.1205 N   0  0  0  0  0  0  0  0  0  0  0  0
    0.7976   -4.5816  -58.3195 C   0  0  0  0  0  0  0  0  0  0  0  0
    1.3316   -4.0834  -60.0162 P   0  0  0  0  0  0  0  0  0  0  0  0
    0.2118   -4.9068  -61.2074 C   0  0  0  0  0  0  0  0  0  0  0  0
   -0.9230   -4.2399  -61.5904 C   0  0  0  0  0  0  0  0  0  0  0  0
   -1.8012   -4.8106  -62.4834 C   0  0  0  0  0  0  0  0  0  0  0  0
   -1.5152   -6.0628  -62.9822 C   0  0  0  0  0  0  0  0  0  0  0  0
   -0.3839   -6.7637  -62.6203 C   0  0  0  0  0  0  0  0  0  0  0  0
   -0.0916   -8.3419  -63.2939 Cl  0  0  0  0  0  0  0  0  0  0  0  0
    0.4802   -6.1572  -61.7169 C   0  0  0  0  0  0  0  0  0  0  0  0
    1.4934   -4.1961  -57.2421 N   0  0  0  0  0  0  0  0  0  0  0  0
    1.1811   -4.5094  -55.9757 C   0  0  0  0  0  0  0  0  0  0  0  0
    1.9168   -4.0964  -54.9035 C   0  0  0  0  0  0  0  0  0  0  0  0
    1.5338   -4.4576  -53.6377 C   0  0  0  0  0  0  0  0  0  0  0  0
    0.4094   -5.2365  -53.4351 C   0  0  0  0  0  0  0  0  0  0  0  0
   -0.3620   -5.6723  -54.5250 C   0  0  0  0  0  0  0  0  0  0  0  0
    0.0285   -5.3060  -55.7901 C   0  0  0  0  0  0  0  0  0  0  0  0
  1  2  1  0
  2  3  1  0
  3  4  1  0
  4  5  1  0
  5  6  2  0
  6  7  1  0
  7  8  1  0
  8  9  1  0
  9 10  2  0
 10 11  1  0
 11 12  2  0
 12 13  1  0
 13 14  1  0
 13 15  2  0
  7 16  2  0
 16 17  1  0
 17 18  2  0
 18 19  1  0
 19 20  2  0
 20 21  1  0
 21 22  2  0
 22  5  1  0
 15  9  1  0
 22 17  1  0
M  END
$$$$
