
     RDKit          3D

 37 42  0  0  0  0  0  0  0  0999 V2000
  125.9584  148.2394  154.6699 C   0  0  0  0  0  0  0  0  0  0  0  0
  127.1548  148.3367  153.7728 C   0  0  0  0  0  0  0  0  0  0  0  0
  127.1334  147.3060  152.7024 C   0  0  0  0  0  0  0  0  0  0  0  0
  126.8681  145.9747  152.9612 C   0  0  0  0  0  0  0  0  0  0  0  0
  126.8449  145.0142  151.9861 C   0  0  0  0  0  0  0  0  0  0  0  0
  127.0955  145.3694  150.6744 C   0  0  0  0  0  0  0  0  0  0  0  0
  127.0812  144.3422  149.6644 C   0  0  0  0  0  0  0  0  0  0  0  0
  127.9432  143.2248  149.7157 C   0  0  0  0  0  0  0  0  0  0  0  0
  127.6486  142.4887  148.6190 C   0  0  0  0  0  0  0  0  0  0  0  0
  126.6726  143.0532  147.8857 N   0  0  0  0  0  0  0  0  0  0  0  0
  126.4759  142.2331  146.8398 C   0  0  0  0  0  0  0  0  0  0  0  0
  127.3436  141.1399  146.9226 C   0  0  0  0  0  0  0  0  0  0  0  0
  127.4674  140.0139  146.0265 C   0  0  0  0  0  0  0  0  0  0  0  0
  128.7284  139.4348  145.8859 C   0  0  0  0  0  0  0  0  0  0  0  0
  128.9326  138.3510  145.0553 C   0  0  0  0  0  0  0  0  0  0  0  0
  127.8812  137.8159  144.3419 C   0  0  0  0  0  0  0  0  0  0  0  0
  128.0714  136.7100  143.4893 O   0  0  0  0  0  0  0  0  0  0  0  0
  127.4572  136.7029  142.2151 C   0  0  0  0  0  0  0  0  0  0  0  0
  126.6426  138.3831  144.4788 C   0  0  0  0  0  0  0  0  0  0  0  0
  126.4331  139.4674  145.3086 C   0  0  0  0  0  0  0  0  0  0  0  0
  128.0506  141.3509  148.0497 N   0  0  0  0  0  0  0  0  0  0  0  0
  129.0813  140.4874  148.5693 C   0  0  0  0  0  0  0  0  0  0  0  0
  129.2472  140.6270  150.0671 C   0  0  0  0  0  0  0  0  0  0  0  0
  129.9108  141.9151  150.4606 C   0  0  0  0  0  0  0  0  0  0  0  0
  128.9271  143.0047  150.8027 C   0  0  0  0  0  0  0  0  0  0  0  0
  126.3263  144.2025  148.5406 C   0  0  0  0  0  0  0  0  0  0  0  0
  125.2926  145.0799  148.0302 C   0  0  0  0  0  0  0  0  0  0  0  0
  124.2916  144.5596  147.4317 O   0  0  0  0  0  0  0  0  0  0  0  0
  125.2650  146.4843  148.1214 N   0  0  0  0  0  0  0  0  0  0  0  0
  124.2632  147.2795  147.4619 C   0  0  0  0  0  0  0  0  0  0  0  0
  124.2103  148.6374  147.5625 C   0  0  0  0  0  0  0  0  0  0  0  0
  123.2237  149.3516  146.9059 C   0  0  0  0  0  0  0  0  0  0  0  0
  122.2795  148.7037  146.1405 C   0  0  0  0  0  0  0  0  0  0  0  0
  122.3615  147.3347  146.0603 C   0  0  0  0  0  0  0  0  0  0  0  0
  123.3282  146.6071  146.7008 C   0  0  0  0  0  0  0  0  0  0  0  0
  127.3646  146.7107  150.4011 C   0  0  0  0  0  0  0  0  0  0  0  0
  127.3808  147.6507  151.4008 C   0  0  0  0  0  0  0  0  0  0  0  0
  1  2  1  0
  2  3  1  0
  3  4  2  0
  4  5  1  0
  5  6  2  0
  6  7  1  0
  7  8  1  0
  8  9  2  0
  9 10  1  0
 10 11  1  0
 11 12  2  0
 12 13  1  0
 13 14  2  0
 14 15  1  0
 15 16  2  0
 16 17  1  0
 17 18  1  0
 16 19  1  0
 19 20  2  0
 12 21  1  0
 21 22  1  0
 22 23  1  0
 23 24  1  0
 24 25  1  0
 10 26  1  0
 26 27  1  0
 27 28  2  0
 27 29  1  0
 29 30  1  0
 30 31  2  0
 31 32  1  0
 32 33  2  0
 33 34  1  0
 34 35  2  0
  6 36  1  0
 36 37  2  0
 37  3  1  0
 26  7  2  0
 35 30  1  0
 25  8  1  0
 21  9  1  0
 20 13  1  0
M  END
$$$$
