
     RDKit          3D

 26 27  0  0  0  0  0  0  0  0999 V2000
  143.8158  219.4535   43.8068 C   0  0  0  0  0  0  0  0  0  0  0  0
  142.5325  219.6574   43.1037 C   0  0  0  0  0  0  0  0  0  0  0  0
  142.3153  220.8420   42.3608 N   0  0  0  0  0  0  0  0  0  0  0  0
  142.3907  222.0724   43.0910 C   0  0  0  0  0  0  0  0  0  0  0  0
  141.5928  222.0918   44.3541 C   0  0  0  0  0  0  0  0  0  0  0  0
  140.2392  221.6053   43.9936 C   0  0  0  0  0  0  0  0  0  0  0  0
  139.1587  221.2040   43.7218 N   0  0  0  0  0  0  0  0  0  0  0  0
  143.4102  220.9149   41.3692 C   0  0  0  0  0  0  0  0  0  0  0  0
  144.1428  219.6529   41.4284 C   0  0  0  0  0  0  0  0  0  0  0  0
  145.1320  219.5386   42.2031 O   0  0  0  0  0  0  0  0  0  0  0  0
  143.8327  218.4785   40.6594 N   0  0  0  0  0  0  0  0  0  0  0  0
  144.7876  217.4114   40.6149 C   0  0  0  0  0  0  0  0  0  0  0  0
  145.4934  217.0764   41.7498 C   0  0  0  0  0  0  0  0  0  0  0  0
  146.3965  216.0045   41.7360 C   0  0  0  0  0  0  0  0  0  0  0  0
  146.5990  215.2714   40.6098 C   0  0  0  0  0  0  0  0  0  0  0  0
  145.8875  215.6018   39.4494 C   0  0  0  0  0  0  0  0  0  0  0  0
  144.9989  216.6641   39.4776 C   0  0  0  0  0  0  0  0  0  0  0  0
  144.2314  217.0322   38.2748 C   0  0  0  0  0  0  0  0  0  0  0  0
  143.1080  216.5185   38.0498 O   0  0  0  0  0  0  0  0  0  0  0  0
  144.6978  217.9603   37.3112 N   0  0  0  0  0  0  0  0  0  0  0  0
  145.8522  217.7264   36.5125 C   0  0  0  0  0  0  0  0  0  0  0  0
  147.0083  218.4435   36.6830 C   0  0  0  0  0  0  0  0  0  0  0  0
  148.1431  218.2310   35.9051 C   0  0  0  0  0  0  0  0  0  0  0  0
  148.0938  217.2469   34.9156 C   0  0  0  0  0  0  0  0  0  0  0  0
  146.9472  216.5222   34.7338 C   0  0  0  0  0  0  0  0  0  0  0  0
  145.8277  216.7534   35.5229 C   0  0  0  0  0  0  0  0  0  0  0  0
  1  2  1  0
  2  3  1  0
  3  4  1  0
  4  5  1  0
  5  6  1  0
  6  7  3  0
  3  8  1  0
  8  9  1  0
  9 10  2  0
  9 11  1  0
 11 12  1  0
 12 13  2  0
 13 14  1  0
 14 15  2  0
 15 16  1  0
 16 17  2  0
 17 18  1  0
 18 19  2  0
 18 20  1  0
 20 21  1  0
 21 22  2  0
 22 23  1  0
 23 24  2  0
 24 25  1  0
 25 26  2  0
 17 12  1  0
 26 21  1  0
M  END
$$$$
