
     RDKit          3D

 24 26  0  0  0  0  0  0  0  0999 V2000
  128.3328  135.8446  142.7046 C   0  0  0  0  0  0  0  0  0  0  0  0
  128.2321  136.9477  143.6014 O   0  0  0  0  0  0  0  0  0  0  0  0
  128.4068  138.2527  143.1702 C   0  0  0  0  0  0  0  0  0  0  0  0
  128.9207  138.4288  142.0408 O   0  0  0  0  0  0  0  0  0  0  0  0
  128.0057  139.3976  144.0030 C   0  0  0  0  0  0  0  0  0  0  0  0
  127.8175  140.6493  143.4655 C   0  0  0  0  0  0  0  0  0  0  0  0
  127.4354  141.7323  144.2687 C   0  0  0  0  0  0  0  0  0  0  0  0
  127.2358  141.5790  145.6183 C   0  0  0  0  0  0  0  0  0  0  0  0
  126.8244  142.6870  146.4462 N   0  0  0  0  0  0  0  0  0  0  0  0
  127.2988  142.8754  147.7550 C   0  0  0  0  0  0  0  0  0  0  0  0
  128.0834  141.9307  148.4011 C   0  0  0  0  0  0  0  0  0  0  0  0
  128.5243  142.1185  149.6933 C   0  0  0  0  0  0  0  0  0  0  0  0
  129.3698  141.0414  150.3154 C   0  0  0  0  0  0  0  0  0  0  0  0
  128.2043  143.2253  150.3609 N   0  0  0  0  0  0  0  0  0  0  0  0
  127.4487  144.1758  149.7893 C   0  0  0  0  0  0  0  0  0  0  0  0
  127.1656  145.2904  150.5561 C   0  0  0  0  0  0  0  0  0  0  0  0
  127.6419  145.4211  151.8575 O   0  0  0  0  0  0  0  0  0  0  0  0
  127.1655  146.4845  152.6550 C   0  0  0  0  0  0  0  0  0  0  0  0
  126.3907  146.2734  149.9831 C   0  0  0  0  0  0  0  0  0  0  0  0
  125.9181  146.1466  148.6952 C   0  0  0  0  0  0  0  0  0  0  0  0
  126.2187  145.0103  147.9423 C   0  0  0  0  0  0  0  0  0  0  0  0
  126.9832  144.0168  148.4769 C   0  0  0  0  0  0  0  0  0  0  0  0
  127.4257  140.3216  146.1553 C   0  0  0  0  0  0  0  0  0  0  0  0
  127.8043  139.2514  145.3573 C   0  0  0  0  0  0  0  0  0  0  0  0
  1  2  1  0
  2  3  1  0
  3  4  2  0
  3  5  1  0
  5  6  2  0
  6  7  1  0
  7  8  2  0
  8  9  1  0
  9 10  1  0
 10 11  2  0
 11 12  1  0
 12 13  1  0
 12 14  2  0
 14 15  1  0
 15 16  2  0
 16 17  1  0
 17 18  1  0
 16 19  1  0
 19 20  2  0
 20 21  1  0
 21 22  2  0
  8 23  1  0
 23 24  2  0
 24  5  1  0
 22 10  1  0
 22 15  1  0
M  END
$$$$
