
     RDKit          3D

 24 26  0  0  0  0  0  0  0  0999 V2000
  151.8307  153.6072  166.8052 O   0  0  0  0  0  0  0  0  0  0  0  0
  150.6763  153.0383  166.2336 C   0  0  0  0  0  0  0  0  0  0  0  0
  149.4448  153.6288  166.3787 C   0  0  0  0  0  0  0  0  0  0  0  0
  148.3419  153.0616  165.8178 C   0  0  0  0  0  0  0  0  0  0  0  0
  147.1644  153.6984  166.0174 F   0  0  0  0  0  0  0  0  0  0  0  0
  148.3545  151.8981  165.0863 C   0  0  0  0  0  0  0  0  0  0  0  0
  147.1666  151.2749  164.4604 C   0  0  0  0  0  0  0  0  0  0  0  0
  146.6017  151.9215  163.3603 N   0  0  0  0  0  0  0  0  0  0  0  0
  147.3731  152.7776  162.5614 C   0  0  0  0  0  0  0  0  0  0  0  0
  146.6092  153.6630  161.6140 C   0  0  0  0  0  0  0  0  0  0  0  0
  145.6046  152.9653  160.9570 N   0  0  0  0  0  0  0  0  0  0  0  0
  145.0224  153.5507  159.8022 C   0  0  0  0  0  0  0  0  0  0  0  0
  146.0132  153.4002  158.6818 C   0  0  0  0  0  0  0  0  0  0  0  0
  145.7562  152.4835  157.6897 C   0  0  0  0  0  0  0  0  0  0  0  0
  146.6500  152.3311  156.6570 C   0  0  0  0  0  0  0  0  0  0  0  0
  147.8258  153.0827  156.5762 C   0  0  0  0  0  0  0  0  0  0  0  0
  148.0410  153.9894  157.5935 C   0  0  0  0  0  0  0  0  0  0  0  0
  149.1843  154.7277  157.5251 F   0  0  0  0  0  0  0  0  0  0  0  0
  147.1583  154.1598  158.6402 C   0  0  0  0  0  0  0  0  0  0  0  0
  144.7667  152.1083  161.7174 C   0  0  0  0  0  0  0  0  0  0  0  0
  145.4637  151.3118  162.7610 C   0  0  0  0  0  0  0  0  0  0  0  0
  149.6232  151.3101  164.9500 C   0  0  0  0  0  0  0  0  0  0  0  0
  149.6970  150.1624  164.2404 F   0  0  0  0  0  0  0  0  0  0  0  0
  150.7472  151.8699  165.5103 C   0  0  0  0  0  0  0  0  0  0  0  0
  1  2  1  0
  2  3  2  0
  3  4  1  0
  4  5  1  0
  4  6  2  0
  6  7  1  0
  7  8  1  0
  8  9  1  0
  9 10  1  0
 10 11  1  0
 11 12  1  0
 12 13  1  0
 13 14  2  0
 14 15  1  0
 15 16  2  0
 16 17  1  0
 17 18  1  0
 17 19  2  0
 11 20  1  0
 20 21  1  0
  6 22  1  0
 22 23  1  0
 22 24  2  0
 24  2  1  0
 21  8  1  0
 19 13  1  0
M  END
$$$$
