
     RDKit          3D

 39 41  0  0  0  0  0  0  0  0999 V2000
  152.9982  157.7225  152.4384 N   0  0  0  0  0  0  0  0  0  0  0  0
  153.4487  156.3865  152.6269 C   0  0  0  0  0  0  0  0  0  0  0  0
  154.6281  156.0002  151.9769 C   0  0  0  0  0  0  0  0  0  0  0  0
  155.2478  154.8169  152.2480 C   0  0  0  0  0  0  0  0  0  0  0  0
  154.6746  154.0149  153.1916 C   0  0  0  0  0  0  0  0  0  0  0  0
  153.4876  154.3271  153.8995 C   0  0  0  0  0  0  0  0  0  0  0  0
  152.8936  155.5525  153.5575 C   0  0  0  0  0  0  0  0  0  0  0  0
  151.4921  155.8538  153.9823 C   0  0  0  0  0  0  0  0  0  0  0  0
  150.9644  155.1966  154.9644 C   0  0  0  0  0  0  0  0  0  0  0  0
  149.8817  154.6142  155.0664 N   0  0  0  0  0  0  0  0  0  0  0  0
  148.7219  155.0183  155.7607 C   0  0  0  0  0  0  0  0  0  0  0  0
  148.4016  154.4486  157.0350 N   0  0  0  0  0  0  0  0  0  0  0  0
  148.6428  154.8815  158.3561 C   0  0  0  0  0  0  0  0  0  0  0  0
  147.6699  155.1590  159.2161 C   0  0  0  0  0  0  0  0  0  0  0  0
  146.3619  154.5346  159.2546 C   0  0  0  0  0  0  0  0  0  0  0  0
  145.8750  153.8076  158.2760 C   0  0  0  0  0  0  0  0  0  0  0  0
  145.7625  152.0666  158.4058 Cl  0  0  0  0  0  0  0  0  0  0  0  0
  150.0298  155.0577  158.9752 C   0  0  0  0  0  0  0  0  0  0  0  0
  151.0152  154.4045  158.1129 C   0  0  0  0  0  0  0  0  0  0  0  0
  152.0739  153.4946  158.5393 C   0  0  0  0  0  0  0  0  0  0  0  0
  152.4977  152.8702  157.2214 N   0  0  0  0  0  0  0  0  0  0  0  0
  153.2242  153.7953  156.4205 C   0  0  0  0  0  0  0  0  0  0  0  0
  153.1453  153.4660  154.9873 N   0  0  0  0  0  0  0  0  0  0  0  0
  150.3251  156.5236  159.2217 C   0  0  0  0  0  0  0  0  0  0  0  0
  150.1157  157.4519  158.0897 C   0  0  0  0  0  0  0  0  0  0  0  0
  151.1125  157.4380  157.1711 O   0  0  0  0  0  0  0  0  0  0  0  0
  151.0834  158.2907  156.1147 C   0  0  0  0  0  0  0  0  0  0  0  0
  150.1344  158.1537  155.1462 O   0  0  0  0  0  0  0  0  0  0  0  0
  150.1141  157.8977  153.8143 C   0  0  0  0  0  0  0  0  0  0  0  0
  150.7286  156.8406  153.2182 C   0  0  0  0  0  0  0  0  0  0  0  0
  150.6512  156.6563  151.7541 C   0  0  0  0  0  0  0  0  0  0  0  0
  151.0589  155.1962  151.5277 C   0  0  0  0  0  0  0  0  0  0  0  0
  150.6227  154.5252  150.5211 N   0  0  0  0  0  0  0  0  0  0  0  0
  151.2904  154.6098  149.2739 C   0  0  0  0  0  0  0  0  0  0  0  0
  152.0467  153.6187  148.8487 C   0  0  0  0  0  0  0  0  0  0  0  0
  152.6425  153.7420  147.5284 C   0  0  0  0  0  0  0  0  0  0  0  0
  153.1362  153.8269  146.4296 C   0  0  0  0  0  0  0  0  0  0  0  0
  153.6823  153.9397  145.1819 O   0  0  0  0  0  0  0  0  0  0  0  0
  154.1580  155.4402  144.5032 Cl  0  0  0  0  0  0  0  0  0  0  0  0
  1  2  1  0
  2  3  2  0
  3  4  1  0
  4  5  2  0
  5  6  1  0
  6  7  2  0
  7  8  1  0
  8  9  2  0
  9 10  2  0
 10 11  1  0
 11 12  1  0
 12 13  1  0
 13 14  2  3
 14 15  1  0
 15 16  2  3
 16 17  1  0
 13 18  1  0
 18 19  1  0
 19 20  1  0
 20 21  1  0
 21 22  1  0
 22 23  1  0
 18 24  1  0
 24 25  1  0
 25 26  1  0
 26 27  1  0
 27 28  1  0
 28 29  1  0
 29 30  2  0
 30 31  1  0
 31 32  1  0
 32 33  2  3
 33 34  1  0
 34 35  2  3
 35 36  1  0
 36 37  3  0
 37 38  1  0
 38 39  1  0
  7  2  1  0
 30  8  1  0
 23  6  1  0
M  END
$$$$
