
     RDKit          3D

 39 41  0  0  0  0  0  0  0  0999 V2000
  153.6370  156.6903  156.4106 N   0  0  0  0  0  0  0  0  0  0  0  0
  152.9249  155.9205  155.4494 C   0  0  0  0  0  0  0  0  0  0  0  0
  153.5884  155.5894  154.2608 C   0  0  0  0  0  0  0  0  0  0  0  0
  153.0723  154.6957  153.3705 C   0  0  0  0  0  0  0  0  0  0  0  0
  151.8744  154.1231  153.6854 C   0  0  0  0  0  0  0  0  0  0  0  0
  151.1375  154.3957  154.8645 C   0  0  0  0  0  0  0  0  0  0  0  0
  151.7194  155.3381  155.7274 C   0  0  0  0  0  0  0  0  0  0  0  0
  150.9126  155.9500  156.8274 C   0  0  0  0  0  0  0  0  0  0  0  0
  149.8369  155.3595  157.2386 C   0  0  0  0  0  0  0  0  0  0  0  0
  148.6937  155.7848  157.4228 N   0  0  0  0  0  0  0  0  0  0  0  0
  148.0436  156.0755  158.6407 C   0  0  0  0  0  0  0  0  0  0  0  0
  147.0854  155.1635  159.1893 N   0  0  0  0  0  0  0  0  0  0  0  0
  147.1925  154.1425  160.1573 C   0  0  0  0  0  0  0  0  0  0  0  0
  146.5282  154.1621  161.3068 C   0  0  0  0  0  0  0  0  0  0  0  0
  145.0960  154.0031  161.4671 C   0  0  0  0  0  0  0  0  0  0  0  0
  144.3286  153.4040  160.5863 C   0  0  0  0  0  0  0  0  0  0  0  0
  144.8249  151.9166  159.8107 Cl  0  0  0  0  0  0  0  0  0  0  0  0
  148.0479  152.8842  160.0048 C   0  0  0  0  0  0  0  0  0  0  0  0
  148.4529  152.7589  158.6043 C   0  0  0  0  0  0  0  0  0  0  0  0
  148.3738  151.5553  157.7823 C   0  0  0  0  0  0  0  0  0  0  0  0
  148.5594  152.1196  156.3846 N   0  0  0  0  0  0  0  0  0  0  0  0
  149.9056  152.5251  156.1650 C   0  0  0  0  0  0  0  0  0  0  0  0
  150.0078  153.5592  155.1215 N   0  0  0  0  0  0  0  0  0  0  0  0
  149.2172  152.9103  160.9684 C   0  0  0  0  0  0  0  0  0  0  0  0
  150.0499  154.1324  160.9833 C   0  0  0  0  0  0  0  0  0  0  0  0
  150.9335  154.2123  159.9582 O   0  0  0  0  0  0  0  0  0  0  0  0
  151.8084  155.2482  159.8865 C   0  0  0  0  0  0  0  0  0  0  0  0
  151.3590  156.5131  159.6508 O   0  0  0  0  0  0  0  0  0  0  0  0
  151.5238  157.4552  158.6890 C   0  0  0  0  0  0  0  0  0  0  0  0
  151.3290  157.2480  157.3587 C   0  0  0  0  0  0  0  0  0  0  0  0
  151.5437  158.3429  156.3900 C   0  0  0  0  0  0  0  0  0  0  0  0
  150.2033  158.4789  155.6591 C   0  0  0  0  0  0  0  0  0  0  0  0
  150.1470  158.7650  154.4067 N   0  0  0  0  0  0  0  0  0  0  0  0
  150.8007  157.9341  153.4628 C   0  0  0  0  0  0  0  0  0  0  0  0
  150.2243  156.8338  153.0243 C   0  0  0  0  0  0  0  0  0  0  0  0
  150.7355  156.2467  151.7966 C   0  0  0  0  0  0  0  0  0  0  0  0
  151.1726  155.7506  150.7861 C   0  0  0  0  0  0  0  0  0  0  0  0
  151.6843  155.2018  149.6438 O   0  0  0  0  0  0  0  0  0  0  0  0
  150.7491  154.2560  148.5623 Cl  0  0  0  0  0  0  0  0  0  0  0  0
  1  2  1  0
  2  3  2  0
  3  4  1  0
  4  5  2  0
  5  6  1  0
  6  7  2  0
  7  8  1  0
  8  9  2  0
  9 10  2  0
 10 11  1  0
 11 12  1  0
 12 13  1  0
 13 14  2  3
 14 15  1  0
 15 16  2  3
 16 17  1  0
 13 18  1  0
 18 19  1  0
 19 20  1  0
 20 21  1  0
 21 22  1  0
 22 23  1  0
 18 24  1  0
 24 25  1  0
 25 26  1  0
 26 27  1  0
 27 28  1  0
 28 29  1  0
 29 30  2  0
 30 31  1  0
 31 32  1  0
 32 33  2  3
 33 34  1  0
 34 35  2  3
 35 36  1  0
 36 37  3  0
 37 38  1  0
 38 39  1  0
  7  2  1  0
 30  8  1  0
 23  6  1  0
M  END
$$$$
