
     RDKit          3D

 27 28  0  0  0  0  0  0  0  0999 V2000
  168.8130  157.8329  169.1830 C   0  0  0  0  0  0  0  0  0  0  0  0
  167.9783  157.2278  170.2307 C   0  0  0  0  0  0  0  0  0  0  0  0
  167.2943  156.7264  171.0911 C   0  0  0  0  0  0  0  0  0  0  0  0
  166.4648  156.1024  172.1384 C   0  0  0  0  0  0  0  0  0  0  0  0
  165.6698  155.2519  171.8643 N   0  0  0  0  0  0  0  0  0  0  0  0
  164.6670  154.4583  171.9151 C   0  0  0  0  0  0  0  0  0  0  0  0
  163.6733  153.6620  171.9317 C   0  0  0  0  0  0  0  0  0  0  0  0
  162.8591  153.2016  173.0437 C   0  0  0  0  0  0  0  0  0  0  0  0
  162.6983  153.7923  174.3462 C   0  0  0  0  0  0  0  0  0  0  0  0
  161.8656  152.1417  172.6119 C   0  0  0  0  0  0  0  0  0  0  0  0
  161.9024  151.6170  170.9179 Cl  0  0  0  0  0  0  0  0  0  0  0  0
  161.0122  151.6146  173.4507 C   0  0  0  0  0  0  0  0  0  0  0  0
  159.9387  150.5912  173.0869 C   0  0  0  0  0  0  0  0  0  0  0  0
  159.2146  150.5014  174.4471 C   0  0  0  0  0  0  0  0  0  0  0  0
  159.3683  151.0587  175.5419 N   0  0  0  0  0  0  0  0  0  0  0  0
  158.4060  150.5497  176.5117 C   0  0  0  0  0  0  0  0  0  0  0  0
  158.3217  150.7222  177.8811 C   0  0  0  0  0  0  0  0  0  0  0  0
  157.4637  149.9264  178.6086 C   0  0  0  0  0  0  0  0  0  0  0  0
  156.6916  148.9478  177.9529 C   0  0  0  0  0  0  0  0  0  0  0  0
  156.7553  148.7595  176.5968 C   0  0  0  0  0  0  0  0  0  0  0  0
  155.9716  147.7293  175.8503 C   0  0  0  0  0  0  0  0  0  0  0  0
  157.6375  149.6002  175.8908 C   0  0  0  0  0  0  0  0  0  0  0  0
  157.8626  149.7496  174.4512 C   0  0  0  0  0  0  0  0  0  0  0  0
  156.9871  150.6894  173.8772 N   0  0  0  0  0  0  0  0  0  0  0  0
  156.0572  150.7309  172.9183 C   0  0  0  0  0  0  0  0  0  0  0  0
  156.2594  150.4713  171.4760 C   0  0  0  0  0  0  0  0  0  0  0  0
  155.5706  151.1381  170.5238 O   0  0  0  0  0  0  0  0  0  0  0  0
  1  2  1  0
  2  3  3  0
  3  4  1  0
  4  5  2  3
  5  6  1  0
  6  7  2  3
  7  8  1  0
  8  9  1  0
  8 10  1  0
 10 11  1  0
 10 12  2  3
 12 13  1  0
 13 14  1  0
 14 15  2  0
 15 16  1  0
 16 17  2  0
 17 18  1  0
 18 19  2  0
 19 20  1  0
 20 21  1  0
 20 22  2  0
 22 23  1  0
 23 24  1  0
 24 25  1  0
 25 26  1  0
 26 27  1  0
 23 14  1  0
 22 16  1  0
M  END
$$$$
