
     RDKit          3D

 14 15  0  0  0  0  0  0  0  0999 V2000
  117.9682  135.8564  123.4662 C   0  0  0  0  0  0  0  0  0  0  0  0
  116.6293  135.3859  123.7358 C   0  0  0  0  0  0  0  0  0  0  0  0
  116.3108  134.1877  123.2638 C   0  0  0  0  0  0  0  0  0  0  0  0
  116.0198  133.1034  122.6184 C   0  0  0  0  0  0  0  0  0  0  0  0
  114.7443  133.0293  122.0109 C   0  0  0  0  0  0  0  0  0  0  0  0
  113.7499  134.4532  121.8301 Cl  0  0  0  0  0  0  0  0  0  0  0  0
  114.3354  131.8644  121.5905 N   0  0  0  0  0  0  0  0  0  0  0  0
  115.2738  130.8678  121.1951 C   0  0  0  0  0  0  0  0  0  0  0  0
  114.9361  129.5616  121.9004 C   0  0  0  0  0  0  0  0  0  0  0  0
  115.6820  129.5025  123.1964 C   0  0  0  0  0  0  0  0  0  0  0  0
  115.7011  130.7069  123.8853 O   0  0  0  0  0  0  0  0  0  0  0  0
  116.9249  131.2847  123.8115 N   0  0  0  0  0  0  0  0  0  0  0  0
  117.0183  132.0709  122.5711 C   0  0  0  0  0  0  0  0  0  0  0  0
  116.7118  131.1817  121.3847 C   0  0  0  0  0  0  0  0  0  0  0  0
  1  2  1  0
  2  3  2  0
  3  4  2  0
  4  5  1  0
  5  6  1  0
  5  7  2  0
  7  8  1  0
  8  9  1  0
  9 10  1  0
 10 11  1  0
 11 12  1  0
 12 13  1  0
 13 14  1  0
 13  4  1  0
 14  8  1  0
M  END
$$$$
