
     RDKit          3D

 30 30  0  0  0  0  0  0  0  0999 V2000
   24.4980   52.5810   22.2408 C   0  0  0  0  0  0  0  0  0  0  0  0
   25.4694   53.6923   22.0273 C   0  0  0  0  0  0  0  0  0  0  0  0
   26.8671   53.2749   22.0937 C   0  0  0  0  0  0  0  0  0  0  0  0
   27.6998   53.6853   22.9284 N   0  0  0  0  0  0  0  0  0  0  0  0
   29.0645   53.4921   23.1214 C   0  0  0  0  0  0  0  0  0  0  0  0
   29.9891   53.9357   22.4105 C   0  0  0  0  0  0  0  0  0  0  0  0
   30.8388   53.4663   21.4120 C   0  0  0  0  0  0  0  0  0  0  0  0
   31.5966   53.0234   20.5176 C   0  0  0  0  0  0  0  0  0  0  0  0
   32.4485   52.5353   19.5014 C   0  0  0  0  0  0  0  0  0  0  0  0
   33.3123   51.3861   19.7888 C   0  0  0  0  0  0  0  0  0  0  0  0
   33.2058   50.9348   20.9882 N   0  0  0  0  0  0  0  0  0  0  0  0
   32.6803   49.8436   21.5871 C   0  0  0  0  0  0  0  0  0  0  0  0
   32.5805   49.4736   22.9220 C   0  0  0  0  0  0  0  0  0  0  0  0
   32.4916   49.1408   24.1056 C   0  0  0  0  0  0  0  0  0  0  0  0
   31.0330   48.6849   24.4133 C   0  0  0  0  0  0  0  0  0  0  0  0
   30.1446   49.0951   25.0259 C   0  0  0  0  0  0  0  0  0  0  0  0
   29.0844   50.0520   25.2781 C   0  0  0  0  0  0  0  0  0  0  0  0
   27.9170   49.3111   25.8479 N   0  0  0  0  0  0  0  0  0  0  0  0
   26.8323   49.2806   24.9007 C   0  0  0  0  0  0  0  0  0  0  0  0
   25.6725   48.5435   25.5533 C   0  0  0  0  0  0  0  0  0  0  0  0
   24.6069   48.3710   24.7200 O   0  0  0  0  0  0  0  0  0  0  0  0
   25.0221   48.2918   23.4123 N   0  0  0  0  0  0  0  0  0  0  0  0
   34.3044   50.9013   18.8091 C   0  0  0  0  0  0  0  0  0  0  0  0
   34.3338   51.3014   17.5123 C   0  0  0  0  0  0  0  0  0  0  0  0
   35.3636   51.0720   16.5935 C   0  0  0  0  0  0  0  0  0  0  0  0
   36.4844   50.3242   17.1096 C   0  0  0  0  0  0  0  0  0  0  0  0
   37.8037   50.0343   15.9919 Cl  0  0  0  0  0  0  0  0  0  0  0  0
   36.4232   49.9539   18.3549 C   0  0  0  0  0  0  0  0  0  0  0  0
   37.8135   49.0134   19.0456 Cl  0  0  0  0  0  0  0  0  0  0  0  0
   35.4084   50.1726   19.2870 C   0  0  0  0  0  0  0  0  0  0  0  0
  1  2  1  0
  2  3  1  0
  3  4  2  3
  4  5  1  0
  5  6  2  3
  6  7  1  0
  7  8  3  0
  8  9  1  0
  9 10  1  0
 10 11  2  3
 11 12  1  0
 12 13  1  0
 13 14  2  3
 14 15  1  0
 15 16  2  3
 16 17  1  0
 17 18  1  0
 18 19  1  0
 19 20  1  0
 20 21  1  0
 21 22  1  0
 10 23  1  0
 23 24  2  0
 24 25  1  0
 25 26  2  0
 26 27  1  0
 26 28  1  0
 28 29  1  0
 28 30  2  0
 30 23  1  0
M  END
$$$$
