
     RDKit          3D

 19 20  0  0  0  0  0  0  0  0999 V2000
  127.3989  135.0513  144.5585 C   0  0  0  0  0  0  0  0  0  0  0  0
  127.6517  136.2250  143.6821 C   0  0  0  0  0  0  0  0  0  0  0  0
  128.0547  136.0780  142.3824 N   0  0  0  0  0  0  0  0  0  0  0  0
  128.2638  137.1831  141.6464 C   0  0  0  0  0  0  0  0  0  0  0  0
  128.6773  137.0816  140.3161 C   0  0  0  0  0  0  0  0  0  0  0  0
  128.9041  138.1912  139.5293 C   0  0  0  0  0  0  0  0  0  0  0  0
  128.7296  139.4629  140.0295 C   0  0  0  0  0  0  0  0  0  0  0  0
  128.3213  139.5761  141.3412 C   0  0  0  0  0  0  0  0  0  0  0  0
  128.0903  138.4550  142.1426 C   0  0  0  0  0  0  0  0  0  0  0  0
  127.6808  138.5890  143.4643 C   0  0  0  0  0  0  0  0  0  0  0  0
  127.5203  139.7458  143.9265 O   0  0  0  0  0  0  0  0  0  0  0  0
  127.4624  137.4703  144.2317 C   0  0  0  0  0  0  0  0  0  0  0  0
  127.0627  137.5978  145.5254 O   0  0  0  0  0  0  0  0  0  0  0  0
  127.4736  138.6422  146.3931 C   0  0  0  0  0  0  0  0  0  0  0  0
  126.9994  138.2746  147.7811 C   0  0  0  0  0  0  0  0  0  0  0  0
  125.9224  139.4771  148.5417 S   0  0  0  0  0  0  0  0  0  0  0  0
  126.8215  140.6078  149.6030 C   0  0  0  0  0  0  0  0  0  0  0  0
  127.7076  139.8953  150.5965 C   0  0  0  0  0  0  0  0  0  0  0  0
  127.7194  141.4812  148.7228 C   0  0  0  0  0  0  0  0  0  0  0  0
  1  2  1  0
  2  3  1  0
  3  4  1  0
  4  5  2  0
  5  6  1  0
  6  7  2  0
  7  8  1  0
  8  9  2  0
  9 10  1  0
 10 11  2  0
 10 12  1  0
 12 13  1  0
 13 14  1  0
 14 15  1  0
 15 16  1  0
 16 17  1  0
 17 18  1  0
 17 19  1  0
 12  2  2  0
  9  4  1  0
M  END
$$$$
