
     RDKit          3D

 21 22  0  0  0  0  0  0  0  0999 V2000
    2.3915   -2.8815  -57.4472 C   0  0  0  0  0  0  0  0  0  0  0  0
    1.8563   -3.8920  -56.5082 C   0  0  0  0  0  0  0  0  0  0  0  0
    2.3042   -3.9337  -55.3432 O   0  0  0  0  0  0  0  0  0  0  0  0
    0.8123   -4.8300  -56.9484 C   0  0  0  0  0  0  0  0  0  0  0  0
    0.1957   -5.6763  -56.0529 C   0  0  0  0  0  0  0  0  0  0  0  0
    0.4438   -5.8014  -54.5734 C   0  0  0  0  0  0  0  0  0  0  0  0
   -0.8959   -6.5180  -57.0620 S   0  0  0  0  0  0  0  0  0  0  0  0
   -0.5136   -5.7599  -58.5393 C   0  0  0  0  0  0  0  0  0  0  0  0
   -1.0376   -5.9520  -59.8611 N   0  0  0  0  0  0  0  0  0  0  0  0
   -2.0597   -6.9258  -60.0323 C   0  0  0  0  0  0  0  0  0  0  0  0
   -2.3529   -7.7675  -59.1211 O   0  0  0  0  0  0  0  0  0  0  0  0
   -2.8252   -7.0293  -61.2296 N   0  0  0  0  0  0  0  0  0  0  0  0
   -3.2858   -8.2684  -61.7500 C   0  0  0  0  0  0  0  0  0  0  0  0
   -2.5261   -9.0596  -62.5844 C   0  0  0  0  0  0  0  0  0  0  0  0
   -2.9997  -10.2593  -63.0751 C   0  0  0  0  0  0  0  0  0  0  0  0
   -2.1740  -11.1231  -63.9844 C   0  0  0  0  0  0  0  0  0  0  0  0
   -4.2714  -10.6374  -62.6947 C   0  0  0  0  0  0  0  0  0  0  0  0
   -5.0695   -9.8839  -61.8645 C   0  0  0  0  0  0  0  0  0  0  0  0
   -4.5498   -8.6765  -61.3913 C   0  0  0  0  0  0  0  0  0  0  0  0
   -5.3560   -7.8135  -60.4918 C   0  0  0  0  0  0  0  0  0  0  0  0
    0.4259   -4.9049  -58.1865 N   0  0  0  0  0  0  0  0  0  0  0  0
  1  2  1  0
  2  3  2  0
  2  4  1  0
  4  5  2  0
  5  6  1  0
  5  7  1  0
  7  8  1  0
  8  9  1  0
  9 10  1  0
 10 11  2  0
 10 12  1  0
 12 13  1  0
 13 14  2  0
 14 15  1  0
 15 16  1  0
 15 17  2  0
 17 18  1  0
 18 19  2  0
 19 20  1  0
  8 21  2  0
 21  4  1  0
 19 13  1  0
M  END
$$$$
