
     RDKit          3D

 21 22  0  0  0  0  0  0  0  0999 V2000
    2.4083   -2.9656  -57.6628 C   0  0  0  0  0  0  0  0  0  0  0  0
    1.9701   -4.0543  -56.7619 C   0  0  0  0  0  0  0  0  0  0  0  0
    2.6404   -4.2994  -55.7371 O   0  0  0  0  0  0  0  0  0  0  0  0
    0.7616   -4.8319  -57.0758 C   0  0  0  0  0  0  0  0  0  0  0  0
    0.2898   -5.7914  -56.2069 C   0  0  0  0  0  0  0  0  0  0  0  0
    0.8648   -6.2020  -54.8776 C   0  0  0  0  0  0  0  0  0  0  0  0
   -1.0886   -6.3666  -57.0360 S   0  0  0  0  0  0  0  0  0  0  0  0
   -0.9891   -5.3724  -58.4162 C   0  0  0  0  0  0  0  0  0  0  0  0
   -1.8261   -5.2860  -59.5784 N   0  0  0  0  0  0  0  0  0  0  0  0
   -2.9056   -6.2054  -59.6860 C   0  0  0  0  0  0  0  0  0  0  0  0
   -3.3124   -6.8916  -58.6918 O   0  0  0  0  0  0  0  0  0  0  0  0
   -3.6059   -6.4238  -60.9075 N   0  0  0  0  0  0  0  0  0  0  0  0
   -4.6688   -7.3579  -61.0347 C   0  0  0  0  0  0  0  0  0  0  0  0
   -4.5218   -8.5807  -61.6533 C   0  0  0  0  0  0  0  0  0  0  0  0
   -5.5726   -9.4686  -61.7624 C   0  0  0  0  0  0  0  0  0  0  0  0
   -5.4149  -10.8014  -62.4358 C   0  0  0  0  0  0  0  0  0  0  0  0
   -6.7831   -9.0812  -61.2245 C   0  0  0  0  0  0  0  0  0  0  0  0
   -6.9815   -7.8723  -60.5974 C   0  0  0  0  0  0  0  0  0  0  0  0
   -5.8903   -7.0043  -60.5095 C   0  0  0  0  0  0  0  0  0  0  0  0
   -6.0330   -5.6839  -59.8463 C   0  0  0  0  0  0  0  0  0  0  0  0
    0.0893   -4.6540  -58.1732 N   0  0  0  0  0  0  0  0  0  0  0  0
  1  2  1  0
  2  3  2  0
  2  4  1  0
  4  5  2  0
  5  6  1  0
  5  7  1  0
  7  8  1  0
  8  9  1  0
  9 10  1  0
 10 11  2  0
 10 12  1  0
 12 13  1  0
 13 14  2  0
 14 15  1  0
 15 16  1  0
 15 17  2  0
 17 18  1  0
 18 19  2  0
 19 20  1  0
  8 21  2  0
 21  4  1  0
 19 13  1  0
M  END
$$$$
