
     RDKit          3D

 21 23  0  0  0  0  0  0  0  0999 V2000
  113.7701  149.9348  143.7736 O   0  0  0  0  0  0  0  0  0  0  0  0
  114.0343  150.6695  144.9282 C   0  0  0  0  0  0  0  0  0  0  0  0
  115.0893  151.7235  144.7005 C   0  0  0  0  0  0  0  0  0  0  0  0
  116.1375  151.5330  145.6708 N   0  0  0  0  0  0  0  0  0  0  0  0
  117.2478  150.7266  145.3113 C   0  0  0  0  0  0  0  0  0  0  0  0
  117.2443  150.0314  144.2129 N   0  0  0  0  0  0  0  0  0  0  0  0
  118.3516  149.2202  143.8386 C   0  0  0  0  0  0  0  0  0  0  0  0
  118.3319  148.2260  142.8544 N   0  0  0  0  0  0  0  0  0  0  0  0
  119.2469  148.0760  141.8077 C   0  0  0  0  0  0  0  0  0  0  0  0
  118.9723  148.5749  140.5518 C   0  0  0  0  0  0  0  0  0  0  0  0
  119.8572  148.4402  139.5036 C   0  0  0  0  0  0  0  0  0  0  0  0
  121.0602  147.7962  139.6733 C   0  0  0  0  0  0  0  0  0  0  0  0
  122.2153  147.6062  138.3542 Cl  0  0  0  0  0  0  0  0  0  0  0  0
  121.3585  147.2856  140.9291 C   0  0  0  0  0  0  0  0  0  0  0  0
  122.8946  146.4550  141.1746 Cl  0  0  0  0  0  0  0  0  0  0  0  0
  120.4557  147.4338  141.9610 C   0  0  0  0  0  0  0  0  0  0  0  0
  119.4665  149.4485  144.4886 C   0  0  0  0  0  0  0  0  0  0  0  0
  119.4835  149.7674  145.7295 C   0  0  0  0  0  0  0  0  0  0  0  0
  119.8197  149.8856  147.1047 C   0  0  0  0  0  0  0  0  0  0  0  0
  119.1156  150.9428  147.2282 C   0  0  0  0  0  0  0  0  0  0  0  0
  118.4331  150.6401  146.1934 C   0  0  0  0  0  0  0  0  0  0  0  0
  1  2  1  0
  2  3  1  0
  3  4  1  0
  4  5  1  0
  5  6  2  0
  6  7  1  0
  7  8  1  0
  8  9  1  0
  9 10  2  0
 10 11  1  0
 11 12  2  0
 12 13  1  0
 12 14  1  0
 14 15  1  0
 14 16  2  0
  7 17  2  0
 17 18  2  0
 18 19  1  0
 19 20  2  0
 20 21  2  0
 21  5  1  0
 16  9  1  0
 21 18  1  0
M  END
$$$$
