
     RDKit          3D

 21 23  0  0  0  0  0  0  0  0999 V2000
  127.7550  140.4122  146.0156 O   0  0  0  0  0  0  0  0  0  0  0  0
  128.3854  141.2551  146.9294 C   0  0  0  0  0  0  0  0  0  0  0  0
  127.5504  141.4765  148.1660 C   0  0  0  0  0  0  0  0  0  0  0  0
  128.0166  142.6730  148.8198 N   0  0  0  0  0  0  0  0  0  0  0  0
  127.3269  143.8873  148.5712 C   0  0  0  0  0  0  0  0  0  0  0  0
  126.5000  143.9972  147.5741 N   0  0  0  0  0  0  0  0  0  0  0  0
  125.7997  145.2080  147.3143 C   0  0  0  0  0  0  0  0  0  0  0  0
  125.1319  145.5188  146.1247 N   0  0  0  0  0  0  0  0  0  0  0  0
  123.9874  146.3120  145.9981 C   0  0  0  0  0  0  0  0  0  0  0  0
  123.7431  147.3458  146.8775 C   0  0  0  0  0  0  0  0  0  0  0  0
  122.6227  148.1421  146.7743 C   0  0  0  0  0  0  0  0  0  0  0  0
  121.6967  147.9327  145.7797 C   0  0  0  0  0  0  0  0  0  0  0  0
  120.2526  148.9323  145.6188 Cl  0  0  0  0  0  0  0  0  0  0  0  0
  121.9214  146.8976  144.8827 C   0  0  0  0  0  0  0  0  0  0  0  0
  120.7497  146.6070  143.5972 Cl  0  0  0  0  0  0  0  0  0  0  0  0
  123.0504  146.1156  145.0079 C   0  0  0  0  0  0  0  0  0  0  0  0
  125.7993  146.0829  148.2901 C   0  0  0  0  0  0  0  0  0  0  0  0
  126.8092  146.2507  149.0606 C   0  0  0  0  0  0  0  0  0  0  0  0
  127.8210  146.8156  149.8824 C   0  0  0  0  0  0  0  0  0  0  0  0
  128.0721  145.6859  150.4204 C   0  0  0  0  0  0  0  0  0  0  0  0
  127.5497  145.0702  149.4324 C   0  0  0  0  0  0  0  0  0  0  0  0
  1  2  1  0
  2  3  1  0
  3  4  1  0
  4  5  1  0
  5  6  2  0
  6  7  1  0
  7  8  1  0
  8  9  1  0
  9 10  2  0
 10 11  1  0
 11 12  2  0
 12 13  1  0
 12 14  1  0
 14 15  1  0
 14 16  2  0
  7 17  2  0
 17 18  2  0
 18 19  1  0
 19 20  2  0
 20 21  2  0
 21  5  1  0
 16  9  1  0
 21 18  1  0
M  END
$$$$
