
     RDKit          3D

 20 21  0  0  0  0  0  0  0  0999 V2000
  157.3326  152.2968  146.3139 C   0  0  0  0  0  0  0  0  0  0  0  0
  155.9802  151.6756  146.0981 C   0  0  0  0  0  0  0  0  0  0  0  0
  155.7712  150.3288  146.2746 C   0  0  0  0  0  0  0  0  0  0  0  0
  154.5344  149.7561  146.0782 C   0  0  0  0  0  0  0  0  0  0  0  0
  154.3520  148.3976  146.2631 C   0  0  0  0  0  0  0  0  0  0  0  0
  153.1060  147.8352  146.0627 C   0  0  0  0  0  0  0  0  0  0  0  0
  152.0949  148.7072  145.6770 C   0  0  0  0  0  0  0  0  0  0  0  0
  150.9536  148.2182  145.4891 O   0  0  0  0  0  0  0  0  0  0  0  0
  152.3229  149.9870  145.5161 O   0  0  0  0  0  0  0  0  0  0  0  0
  153.4973  150.5439  145.7005 C   0  0  0  0  0  0  0  0  0  0  0  0
  153.7026  151.9144  145.5190 C   0  0  0  0  0  0  0  0  0  0  0  0
  154.9239  152.5119  145.7080 C   0  0  0  0  0  0  0  0  0  0  0  0
  155.0966  153.8284  145.5266 O   0  0  0  0  0  0  0  0  0  0  0  0
  155.0638  154.6948  144.4812 C   0  0  0  0  0  0  0  0  0  0  0  0
  153.7488  155.1244  143.9374 C   0  0  1  0  0  0  0  0  0  0  0  0
  153.4666  156.4420  144.3743 O   0  0  0  0  0  0  0  0  0  0  0  0
  153.8032  155.2464  142.4111 C   0  0  0  0  0  0  0  0  0  0  0  0
  154.9130  156.2206  142.0109 C   0  0  0  0  0  0  0  0  0  0  0  0
  152.5169  155.7993  141.8659 C   0  0  0  0  0  0  0  0  0  0  0  0
  154.0419  154.0023  141.8316 O   0  0  0  0  0  0  0  0  0  0  0  0
  1  2  1  0
  2  3  2  0
  3  4  1  0
  4  5  1  0
  5  6  2  0
  6  7  1  0
  7  8  2  0
  7  9  1  0
  9 10  1  0
 10 11  1  0
 11 12  2  0
 12 13  1  0
 13 14  1  0
 14 15  1  0
 15 16  1  1
 15 17  1  0
 17 18  1  0
 17 19  1  0
 17 20  1  0
 12  2  1  0
 10  4  2  0
M  END
$$$$
