
     RDKit          3D

 25 27  0  0  0  0  0  0  0  0999 V2000
  151.5210  159.3121  155.2425 C   0  0  0  0  0  0  0  0  0  0  0  0
  151.2306  158.0090  155.6253 O   0  0  0  0  0  0  0  0  0  0  0  0
  150.3573  157.6052  156.6162 C   0  0  0  0  0  0  0  0  0  0  0  0
  149.6344  158.4688  157.4084 C   0  0  0  0  0  0  0  0  0  0  0  0
  148.7691  158.0242  158.3931 C   0  0  0  0  0  0  0  0  0  0  0  0
  148.6122  156.6734  158.6032 C   0  0  0  0  0  0  0  0  0  0  0  0
  149.3496  155.8160  157.7946 C   0  0  0  0  0  0  0  0  0  0  0  0
  150.2087  156.2261  156.8173 C   0  0  0  0  0  0  0  0  0  0  0  0
  150.9632  155.3417  156.0055 N   0  0  0  0  0  0  0  0  0  0  0  0
  150.3198  154.2155  155.3382 C   0  0  0  0  0  0  0  0  0  0  0  0
  149.8180  154.6128  153.9939 C   0  0  0  0  0  0  0  0  0  0  0  0
  148.5950  154.8860  153.8859 O   0  0  0  0  0  0  0  0  0  0  0  0
  150.6816  154.6841  152.8690 N   0  0  0  0  0  0  0  0  0  0  0  0
  151.9338  153.9496  152.8887 C   0  0  0  0  0  0  0  0  0  0  0  0
  152.9948  154.7064  152.1048 C   0  0  0  0  0  0  0  0  0  0  0  0
  152.5121  154.9820  150.7530 N   0  0  0  0  0  0  0  0  0  0  0  0
  153.4337  155.0414  149.6842 C   0  0  0  0  0  0  0  0  0  0  0  0
  152.9491  155.0599  148.5069 O   0  0  0  0  0  0  0  0  0  0  0  0
  154.8791  155.0840  149.8408 C   0  0  0  0  0  0  0  0  0  0  0  0
  155.5446  155.5766  150.9170 C   0  0  0  0  0  0  0  0  0  0  0  0
  156.8888  155.4316  150.6741 C   0  0  0  0  0  0  0  0  0  0  0  0
  156.9958  154.8412  149.4262 C   0  0  0  0  0  0  0  0  0  0  0  0
  155.7848  154.6687  149.0035 O   0  0  0  0  0  0  0  0  0  0  0  0
  151.1080  155.1969  150.4890 C   0  0  0  0  0  0  0  0  0  0  0  0
  150.3085  155.4924  151.7321 C   0  0  0  0  0  0  0  0  0  0  0  0
  1  2  1  0
  2  3  1  0
  3  4  2  0
  4  5  1  0
  5  6  2  0
  6  7  1  0
  7  8  2  0
  8  9  1  0
  9 10  1  0
 10 11  1  0
 11 12  2  0
 11 13  1  0
 13 14  1  0
 14 15  1  0
 15 16  1  0
 16 17  1  0
 17 18  2  0
 17 19  1  0
 19 20  2  0
 20 21  1  0
 21 22  2  0
 22 23  1  0
 16 24  1  0
 24 25  1  0
  8  3  1  0
 25 13  1  0
 23 19  1  0
M  END
$$$$
