
     RDKit          3D

 18 18  0  0  0  0  0  0  0  0999 V2000
  128.7344  146.3491  150.4554 C   0  0  0  0  0  0  0  0  0  0  0  0
  127.3052  146.6507  150.6860 C   0  0  0  0  0  0  0  0  0  0  0  0
  126.9638  147.6251  151.7386 C   0  0  0  0  0  0  0  0  0  0  0  0
  127.8623  147.1447  153.2121 Cl  0  0  0  0  0  0  0  0  0  0  0  0
  126.3542  146.0817  149.9901 C   0  0  0  0  0  0  0  0  0  0  0  0
  124.6885  146.3241  150.4742 Cl  0  0  0  0  0  0  0  0  0  0  0  0
  126.6076  145.2824  148.8834 N   0  0  0  0  0  0  0  0  0  0  0  0
  125.8204  144.8092  148.0027 C   0  0  0  0  0  0  0  0  0  0  0  0
  125.8999  143.3800  147.7950 N   0  0  0  0  0  0  0  0  0  0  0  0
  127.1350  142.7291  148.0362 C   0  0  0  0  0  0  0  0  0  0  0  0
  127.1752  141.2534  147.8362 C   0  0  0  0  0  0  0  0  0  0  0  0
  127.7355  141.0465  146.5502 O   0  0  0  0  0  0  0  0  0  0  0  0
  124.8809  145.6075  147.2307 C   0  0  0  0  0  0  0  0  0  0  0  0
  123.8378  145.0467  146.5369 C   0  0  0  0  0  0  0  0  0  0  0  0
  122.9281  145.7677  145.8047 C   0  0  0  0  0  0  0  0  0  0  0  0
  123.0685  147.1584  145.7596 C   0  0  0  0  0  0  0  0  0  0  0  0
  124.1133  147.7349  146.4531 C   0  0  0  0  0  0  0  0  0  0  0  0
  125.0184  146.9660  147.1873 C   0  0  0  0  0  0  0  0  0  0  0  0
  1  2  1  0
  2  3  1  0
  3  4  1  0
  2  5  2  3
  5  6  1  0
  5  7  1  0
  7  8  2  3
  8  9  1  0
  9 10  1  0
 10 11  1  0
 11 12  1  0
  8 13  1  0
 13 14  2  0
 14 15  1  0
 15 16  2  0
 16 17  1  0
 17 18  2  0
 18 13  1  0
M  END
$$$$
