
     RDKit          3D

 18 18  0  0  0  0  0  0  0  0999 V2000
  129.0068  146.2381  150.1331 C   0  0  0  0  0  0  0  0  0  0  0  0
  127.6353  146.6110  150.5414 C   0  0  0  0  0  0  0  0  0  0  0  0
  127.4746  147.7271  151.4912 C   0  0  0  0  0  0  0  0  0  0  0  0
  127.3272  147.0099  153.1262 Cl  0  0  0  0  0  0  0  0  0  0  0  0
  126.5806  145.9831  150.0876 C   0  0  0  0  0  0  0  0  0  0  0  0
  124.9944  146.4859  150.6341 Cl  0  0  0  0  0  0  0  0  0  0  0  0
  126.6628  144.9241  149.1935 N   0  0  0  0  0  0  0  0  0  0  0  0
  125.9090  144.5966  148.2220 C   0  0  0  0  0  0  0  0  0  0  0  0
  126.0699  143.2451  147.7325 N   0  0  0  0  0  0  0  0  0  0  0  0
  127.1861  142.4936  148.1761 C   0  0  0  0  0  0  0  0  0  0  0  0
  127.2253  141.0518  147.8030 C   0  0  0  0  0  0  0  0  0  0  0  0
  127.6253  141.0088  146.4432 O   0  0  0  0  0  0  0  0  0  0  0  0
  124.9309  145.4825  147.6100 C   0  0  0  0  0  0  0  0  0  0  0  0
  125.2301  146.7749  147.2575 C   0  0  0  0  0  0  0  0  0  0  0  0
  124.3367  147.6365  146.6720 C   0  0  0  0  0  0  0  0  0  0  0  0
  123.0415  147.1744  146.4174 C   0  0  0  0  0  0  0  0  0  0  0  0
  122.7277  145.8766  146.7669 C   0  0  0  0  0  0  0  0  0  0  0  0
  123.6659  145.0304  147.3612 C   0  0  0  0  0  0  0  0  0  0  0  0
  1  2  1  0
  2  3  1  0
  3  4  1  0
  2  5  2  3
  5  6  1  0
  5  7  1  0
  7  8  2  3
  8  9  1  0
  9 10  1  0
 10 11  1  0
 11 12  1  0
  8 13  1  0
 13 14  2  0
 14 15  1  0
 15 16  2  0
 16 17  1  0
 17 18  2  0
 18 13  1  0
M  END
$$$$
