
     RDKit          3D

 23 25  0  0  0  0  0  0  0  0999 V2000
   -2.5590   51.4833   17.4957 C   0  0  0  0  0  0  0  0  0  0  0  0
   -1.0893   51.4372   17.3340 C   0  0  0  0  0  0  0  0  0  0  0  0
   -0.2870   50.9466   18.3345 C   0  0  0  0  0  0  0  0  0  0  0  0
   -0.9521   50.3530   19.8450 Cl  0  0  0  0  0  0  0  0  0  0  0  0
    1.1007   50.8908   18.2108 C   0  0  0  0  0  0  0  0  0  0  0  0
    1.6627   51.3468   17.0410 C   0  0  0  0  0  0  0  0  0  0  0  0
    0.8569   51.8410   16.0327 C   0  0  0  0  0  0  0  0  0  0  0  0
   -0.5291   51.8859   16.1816 C   0  0  0  0  0  0  0  0  0  0  0  0
   -1.2711   52.4127   15.0855 N   0  0  0  0  0  0  0  0  0  0  0  0
   -0.9831   53.6711   14.4885 C   0  0  0  0  0  0  0  0  0  0  0  0
    0.2215   54.0288   14.4781 O   0  0  0  0  0  0  0  0  0  0  0  0
   -2.0427   54.5111   13.9125 C   0  0  0  0  0  0  0  0  0  0  0  0
   -3.3363   54.1462   13.6166 C   0  0  0  0  0  0  0  0  0  0  0  0
   -3.9733   55.2523   13.0942 C   0  0  0  0  0  0  0  0  0  0  0  0
   -3.0056   56.2467   13.1041 C   0  0  0  0  0  0  0  0  0  0  0  0
   -3.2442   57.6048   12.6318 C   0  0  0  0  0  0  0  0  0  0  0  0
   -2.2193   58.4564   12.2912 C   0  0  0  0  0  0  0  0  0  0  0  0
   -2.4333   59.7358   11.8459 C   0  0  0  0  0  0  0  0  0  0  0  0
   -3.7218   60.1970   11.7312 C   0  0  0  0  0  0  0  0  0  0  0  0
   -4.7931   59.3683   12.0654 C   0  0  0  0  0  0  0  0  0  0  0  0
   -6.4069   60.0068   11.9001 Cl  0  0  0  0  0  0  0  0  0  0  0  0
   -4.5457   58.0882   12.5097 C   0  0  0  0  0  0  0  0  0  0  0  0
   -1.9032   55.7608   13.5897 O   0  0  0  0  0  0  0  0  0  0  0  0
  1  2  1  0
  2  3  2  0
  3  4  1  0
  3  5  1  0
  5  6  2  0
  6  7  1  0
  7  8  2  0
  8  9  1  0
  9 10  1  0
 10 11  2  0
 10 12  1  0
 12 13  2  0
 13 14  1  0
 14 15  2  0
 15 16  1  0
 16 17  2  0
 17 18  1  0
 18 19  2  0
 19 20  1  0
 20 21  1  0
 20 22  2  0
 15 23  1  0
  8  2  1  0
 23 12  1  0
 22 16  1  0
M  END
$$$$
