
     RDKit          3D

 31 33  0  0  0  0  0  0  0  0999 V2000
  154.3850  165.3243  162.7545 C   0  0  0  0  0  0  0  0  0  0  0  0
  153.3087  164.2793  162.3236 C   0  0  0  0  0  0  0  0  0  0  0  0
  152.3949  163.3729  161.9385 C   0  0  0  0  0  0  0  0  0  0  0  0
  151.5533  162.5495  161.5696 C   0  0  0  0  0  0  0  0  0  0  0  0
  151.8230  161.1155  160.6456 S   0  0  0  0  0  6  0  0  0  0  0  0
  153.4018  160.9328  160.5583 O   0  0  0  0  0  0  0  0  0  0  0  0
  151.4035  159.8618  161.4111 O   0  0  0  0  0  0  0  0  0  0  0  0
  151.3020  160.9189  159.0466 C   0  0  0  0  0  0  0  0  0  0  0  0
  151.3376  161.9643  158.1454 C   0  0  0  0  0  0  0  0  0  0  0  0
  151.1471  161.8692  156.8311 C   0  0  0  0  0  0  0  0  0  0  0  0
  150.8905  160.5929  156.2792 C   0  0  0  0  0  0  0  0  0  0  0  0
  150.8409  159.4999  157.1160 C   0  0  0  0  0  0  0  0  0  0  0  0
  150.8079  158.1655  156.4939 C   0  0  0  0  0  0  0  0  0  0  0  0
  150.1445  157.2410  156.8537 O   0  0  0  0  0  0  0  0  0  0  0  0
  151.6921  157.9550  155.3407 N   0  0  0  0  0  0  0  0  0  0  0  0
  151.6599  156.7767  154.5199 C   0  0  0  0  0  0  0  0  0  0  0  0
  152.5143  156.2585  153.7039 N   0  0  0  0  0  0  0  0  0  0  0  0
  152.2962  155.0923  153.1141 C   0  0  0  0  0  0  0  0  0  0  0  0
  153.3259  154.5390  152.1976 C   0  0  0  0  0  0  0  0  0  0  0  0
  154.2704  155.3272  151.5497 C   0  0  0  0  0  0  0  0  0  0  0  0
  155.2281  154.8264  150.7055 C   0  0  0  0  0  0  0  0  0  0  0  0
  155.3466  153.4716  150.4206 C   0  0  0  0  0  0  0  0  0  0  0  0
  156.2083  152.7809  149.6640 O   0  0  0  0  0  0  0  0  0  0  0  0
  157.4199  153.3389  149.1526 C   0  0  0  0  0  0  0  0  0  0  0  0
  158.5495  152.3520  149.1744 C   0  0  0  0  0  0  0  0  0  0  0  0
  154.3499  152.6974  151.1105 C   0  0  0  0  0  0  0  0  0  0  0  0
  153.4206  153.2000  151.9262 C   0  0  0  0  0  0  0  0  0  0  0  0
  151.1032  154.4851  153.4339 C   0  0  0  0  0  0  0  0  0  0  0  0
  150.5253  153.1768  152.9646 C   0  0  0  0  0  0  0  0  0  0  0  0
  150.3885  155.5877  154.5241 S   0  0  0  0  0  0  0  0  0  0  0  0
  151.0338  159.6512  158.4541 C   0  0  0  0  0  0  0  0  0  0  0  0
  1  2  1  0
  2  3  3  0
  3  4  1  0
  4  5  1  0
  5  6  2  0
  5  7  2  0
  5  8  1  0
  8  9  2  0
  9 10  1  0
 10 11  2  0
 11 12  1  0
 12 13  1  0
 13 14  2  0
 13 15  1  0
 15 16  1  0
 16 17  2  0
 17 18  1  0
 18 19  1  0
 19 20  2  0
 20 21  1  0
 21 22  2  0
 22 23  1  0
 23 24  1  0
 24 25  1  0
 22 26  1  0
 26 27  2  0
 18 28  2  0
 28 29  1  0
 28 30  1  0
 12 31  2  0
 31  8  1  0
 30 16  1  0
 27 19  1  0
M  END
$$$$
