
     RDKit          3D

 21 23  0  0  0  0  0  0  0  0999 V2000
  151.0500  159.2358  156.9907 C   0  0  0  0  0  0  0  0  0  0  0  0
  150.3129  158.2768  156.3208 O   0  0  0  0  0  0  0  0  0  0  0  0
  150.5375  158.3072  154.9652 C   0  0  0  0  0  0  0  0  0  0  0  0
  150.6097  156.9271  154.4011 C   0  0  0  0  0  0  0  0  0  0  0  0
  150.3739  155.8416  155.2252 C   0  0  0  0  0  0  0  0  0  0  0  0
  150.4533  154.5899  154.6531 C   0  0  0  0  0  0  0  0  0  0  0  0
  150.7508  154.4494  153.3382 C   0  0  0  0  0  0  0  0  0  0  0  0
  150.9844  155.5362  152.5240 C   0  0  0  0  0  0  0  0  0  0  0  0
  151.2976  155.3019  151.1240 C   0  0  0  0  0  0  0  0  0  0  0  0
  151.8599  156.2161  150.4701 O   0  0  0  0  0  0  0  0  0  0  0  0
  151.0196  154.1158  150.4249 N   0  0  0  0  0  0  0  0  0  0  0  0
  151.3863  153.8839  149.0524 C   0  0  0  0  0  0  0  0  0  0  0  0
  151.1901  152.8538  148.2760 N   0  0  0  0  0  0  0  0  0  0  0  0
  151.6087  152.8461  147.0458 C   0  0  0  0  0  0  0  0  0  0  0  0
  151.4556  151.7975  146.1195 C   0  0  0  0  0  0  0  0  0  0  0  0
  151.9457  151.9298  144.8640 C   0  0  0  0  0  0  0  0  0  0  0  0
  152.6081  153.0436  144.3912 C   0  0  0  0  0  0  0  0  0  0  0  0
  152.7631  154.0750  145.2897 C   0  0  0  0  0  0  0  0  0  0  0  0
  152.2644  153.9632  146.5969 C   0  0  0  0  0  0  0  0  0  0  0  0
  152.2327  154.9562  147.9890 S   0  0  0  0  0  0  0  0  0  0  0  0
  150.9108  156.7956  153.0723 C   0  0  0  0  0  0  0  0  0  0  0  0
  1  2  1  0
  2  3  1  0
  3  4  1  0
  4  5  2  0
  5  6  1  0
  6  7  2  0
  7  8  1  0
  8  9  1  0
  9 10  2  0
  9 11  1  0
 11 12  1  0
 12 13  2  0
 13 14  1  0
 14 15  2  0
 15 16  1  0
 16 17  2  0
 17 18  1  0
 18 19  2  0
 19 20  1  0
  8 21  2  0
 21  4  1  0
 20 12  1  0
 19 14  1  0
M  END
$$$$
