
     RDKit          3D

  7  6  0  0  0  0  0  0  0  0999 V2000
   -1.1553    4.3081  -16.4853 C   0  0  0  0  0  0  0  0  0  0  0  0
   -0.9480    4.9675  -17.7980 C   0  0  0  0  0  0  0  0  0  0  0  0
   -1.6884    4.4941  -19.0131 C   0  0  0  0  0  0  0  0  0  0  0  0
   -2.0659    5.5276  -19.8442 F   0  0  0  0  0  0  0  0  0  0  0  0
   -0.1178    5.9491  -17.8540 N   0  0  0  0  0  0  0  0  0  0  0  0
    0.8030    6.1625  -16.8677 C   0  0  0  0  0  0  0  0  0  0  0  0
    1.6220    6.3724  -15.9975 N   0  0  0  0  0  0  0  0  0  0  0  0
  1  2  1  0
  2  3  1  0
  3  4  1  0
  2  5  2  3
  5  6  1  0
  6  7  3  0
M  END
$$$$
