
     RDKit          3D

 16 17  0  0  0  0  0  0  0  0999 V2000
    6.5234    4.4342  -34.2835 C   0  0  0  0  0  0  0  0  0  0  0  0
    7.8028    3.7015  -34.1030 C   0  0  0  0  0  0  0  0  0  0  0  0
    8.9946    4.2134  -34.4587 N   0  0  0  0  0  0  0  0  0  0  0  0
   10.1482    3.5498  -34.2947 C   0  0  0  0  0  0  0  0  0  0  0  0
   11.3652    4.1527  -34.6931 N   0  0  0  0  0  0  0  0  0  0  0  0
   10.0937    2.3331  -33.7551 N   0  0  0  0  0  0  0  0  0  0  0  0
    8.9342    1.7491  -33.3713 C   0  0  0  0  0  0  0  0  0  0  0  0
    7.7425    2.4425  -33.5442 C   0  0  0  0  0  0  0  0  0  0  0  0
    6.4879    1.8361  -33.1401 C   0  0  0  0  0  0  0  0  0  0  0  0
    6.1902    1.6155  -31.8154 C   0  0  0  0  0  0  0  0  0  0  0  0
    4.9776    1.0302  -31.4363 C   0  0  0  0  0  0  0  0  0  0  0  0
    4.0596    0.6649  -32.3952 C   0  0  0  0  0  0  0  0  0  0  0  0
    2.5284   -0.0744  -31.9140 Cl  0  0  0  0  0  0  0  0  0  0  0  0
    4.3458    0.8801  -33.7175 C   0  0  0  0  0  0  0  0  0  0  0  0
    5.5620    1.4665  -34.0880 C   0  0  0  0  0  0  0  0  0  0  0  0
    5.7975    1.6578  -35.4039 F   0  0  0  0  0  0  0  0  0  0  0  0
  1  2  1  0
  2  3  2  0
  3  4  1  0
  4  5  1  0
  4  6  2  0
  6  7  1  0
  7  8  2  0
  8  9  1  0
  9 10  2  0
 10 11  1  0
 11 12  2  0
 12 13  1  0
 12 14  1  0
 14 15  2  0
 15 16  1  0
  8  2  1  0
 15  9  1  0
M  END
$$$$
