
     RDKit          3D

 23 24  0  0  0  0  0  0  0  0999 V2000
   91.7031  289.0331  119.0872 C   0  0  0  0  0  0  0  0  0  0  0  0
   91.5912  290.4453  119.6206 C   0  0  0  0  0  0  0  0  0  0  0  0
   90.8008  290.3605  120.9365 C   0  0  0  0  0  0  0  0  0  0  0  0
   89.5820  289.7964  120.7028 O   0  0  0  0  0  0  0  0  0  0  0  0
   89.0439  289.9930  119.4372 C   0  0  0  0  0  0  0  0  0  0  0  0
   89.4298  288.8701  118.5490 C   0  0  1  0  0  0  0  0  0  0  0  0
   90.8993  288.9369  118.2720 C   0  0  0  0  0  0  0  0  0  0  0  0
   89.0465  287.5867  118.9378 O   0  0  0  0  0  0  0  0  0  0  0  0
   89.1644  286.4348  118.1956 C   0  0  0  0  0  0  0  0  0  0  0  0
   88.8045  285.2117  118.6875 C   0  0  0  0  0  0  0  0  0  0  0  0
   88.1247  285.0368  119.9533 C   0  0  0  0  0  0  0  0  0  0  0  0
   88.7024  284.1321  120.9749 C   0  0  0  0  0  0  0  0  0  0  0  0
   87.0702  285.6153  120.2257 O   0  0  0  0  0  0  0  0  0  0  0  0
   88.9657  284.0456  117.8934 C   0  0  0  0  0  0  0  0  0  0  0  0
   89.4711  284.0842  116.6273 C   0  0  0  0  0  0  0  0  0  0  0  0
   89.6294  282.9344  115.8476 O   0  0  0  0  0  0  0  0  0  0  0  0
   90.4778  282.8380  114.7539 C   0  0  0  0  0  0  0  0  0  0  0  0
   89.8294  285.3168  116.1273 C   0  0  0  0  0  0  0  0  0  0  0  0
   90.3306  285.3457  114.8450 C   0  0  0  0  0  0  0  0  0  0  0  0
   90.6939  286.5546  114.3057 C   0  0  0  0  0  0  0  0  0  0  0  0
   90.5426  287.6901  115.0683 C   0  0  0  0  0  0  0  0  0  0  0  0
   90.0388  287.6829  116.3649 C   0  0  0  0  0  0  0  0  0  0  0  0
   89.6776  286.4645  116.8976 C   0  0  0  0  0  0  0  0  0  0  0  0
  1  2  1  0
  2  3  1  0
  3  4  1  0
  4  5  1  0
  5  6  1  0
  6  7  1  1
  6  8  1  0
  8  9  1  0
  9 10  2  0
 10 11  1  0
 11 12  1  0
 11 13  2  0
 10 14  1  0
 14 15  2  0
 15 16  1  0
 16 17  1  0
 15 18  1  0
 18 19  2  0
 19 20  1  0
 20 21  2  0
 21 22  1  0
 22 23  2  0
 23  9  1  0
 23 18  1  0
M  END
$$$$
