
     RDKit          3D

 27 29  0  0  0  0  0  0  0  0999 V2000
   -0.0020   25.3442   -8.6806 C   0  0  0  0  0  0  0  0  0  0  0  0
    0.1139   26.7483   -8.9518 O   0  0  0  0  0  0  0  0  0  0  0  0
    0.6895   27.5775   -7.9591 C   0  0  0  0  0  0  0  0  0  0  0  0
    1.3079   26.9520   -6.8758 C   0  0  0  0  0  0  0  0  0  0  0  0
    1.9480   27.7023   -5.8777 C   0  0  0  0  0  0  0  0  0  0  0  0
    1.9613   29.1282   -5.9544 C   0  0  0  0  0  0  0  0  0  0  0  0
    2.9481   29.8703   -5.1247 C   0  0  0  0  0  0  0  0  0  0  0  0
    4.0616   29.3301   -4.7397 N   0  0  0  0  0  0  0  0  0  0  0  0
    4.9578   30.0322   -4.0515 C   0  0  0  0  0  0  0  0  0  0  0  0
    6.2033   29.5012   -3.4824 N   0  0  0  0  0  0  0  0  0  0  0  0
    6.8072   30.4671   -2.5172 C   0  0  0  0  0  0  0  0  0  0  0  0
    6.1256   31.5248   -2.4625 O   0  0  0  0  0  0  0  0  0  0  0  0
    7.9832   30.2814   -1.7268 C   0  0  0  0  0  0  0  0  0  0  0  0
    8.0825   31.0432   -0.5105 C   0  0  0  0  0  0  0  0  0  0  0  0
    9.0931   30.9900    0.3120 C   0  0  0  0  0  0  0  0  0  0  0  0
   10.1544   30.1095   -0.0402 C   0  0  0  0  0  0  0  0  0  0  0  0
   10.0673   29.4194   -1.1588 C   0  0  0  0  0  0  0  0  0  0  0  0
   11.2969   28.6574   -1.7111 C   0  0  0  0  0  0  0  0  0  0  0  0
   12.2651   28.0579   -2.1368 C   0  0  0  0  0  0  0  0  0  0  0  0
   13.3682   27.3741   -2.6018 C   0  0  0  0  0  0  0  0  0  0  0  0
   14.1361   26.6794   -1.6346 O   0  0  0  0  0  0  0  0  0  0  0  0
    9.0047   29.4374   -2.0807 C   0  0  0  0  0  0  0  0  0  0  0  0
    4.1970   31.5410   -3.9321 S   0  0  0  0  0  0  0  0  0  0  0  0
    2.7349   31.1874   -4.7947 C   0  0  0  0  0  0  0  0  0  0  0  0
    1.5313   32.0522   -5.1235 C   0  0  0  0  0  0  0  0  0  0  0  0
    1.3362   29.6817   -7.0066 C   0  0  0  0  0  0  0  0  0  0  0  0
    0.6996   28.9361   -8.0198 C   0  0  0  0  0  0  0  0  0  0  0  0
  1  2  1  0
  2  3  1  0
  3  4  2  0
  4  5  1  0
  5  6  2  0
  6  7  1  0
  7  8  1  0
  8  9  2  0
  9 10  1  0
 10 11  1  0
 11 12  2  0
 11 13  1  0
 13 14  2  0
 14 15  1  0
 15 16  2  0
 16 17  1  0
 17 18  1  0
 18 19  3  0
 19 20  1  0
 20 21  1  0
 17 22  2  0
  9 23  1  0
 23 24  1  0
 24 25  1  0
  6 26  1  0
 26 27  2  0
 27  3  1  0
 24  7  2  0
 22 13  1  0
M  END
$$$$
