
     RDKit          3D

 17 16  0  0  0  0  0  0  0  0999 V2000
    3.3381   26.0577   -6.2702 C   0  0  0  0  0  0  0  0  0  0  0  0
    2.8780   27.0736   -6.9875 C   0  0  0  0  0  0  0  0  0  0  0  0
    1.4514   27.0466   -7.4453 C   0  0  1  0  0  0  0  0  0  0  0  0
    1.3131   25.9126   -8.4618 C   0  0  0  0  0  0  0  0  0  0  0  0
    0.6519   26.8145   -6.3533 O   0  0  0  0  0  0  0  0  0  0  0  0
    1.0967   28.3481   -8.1305 C   0  0  0  0  0  0  0  0  0  0  0  0
    1.3438   29.4491   -7.1641 C   0  0  0  0  0  0  0  0  0  0  0  0
    0.7307   29.5502   -6.0712 O   0  0  0  0  0  0  0  0  0  0  0  0
    2.3203   30.4219   -7.5074 N   0  0  0  0  0  0  0  0  0  0  0  0
    2.9341   31.2281   -6.4449 C   0  0  2  0  0  0  0  0  0  0  0  0
    3.3067   32.5464   -7.0336 C   0  0  0  0  0  0  0  0  0  0  0  0
    4.1227   30.4381   -5.9526 C   0  0  0  0  0  0  0  0  0  0  0  0
    4.5811   30.8704   -4.5860 C   0  0  0  0  0  0  0  0  0  0  0  0
    3.5774   30.5426   -3.5483 C   0  0  0  0  0  0  0  0  0  0  0  0
    3.3355   31.3966   -2.5735 C   0  0  0  0  0  0  0  0  0  0  0  0
    2.4073   31.0012   -1.4830 C   0  0  0  0  0  0  0  0  0  0  0  0
    4.0065   32.7263   -2.6087 C   0  0  0  0  0  0  0  0  0  0  0  0
  1  2  2  0
  2  3  1  0
  3  4  1  6
  3  5  1  0
  3  6  1  0
  6  7  1  0
  7  8  2  0
  7  9  1  0
  9 10  1  0
 10 11  1  6
 10 12  1  0
 12 13  1  0
 13 14  1  0
 14 15  2  3
 15 16  1  0
 15 17  1  0
M  END
$$$$
