
     RDKit          3D

 26 28  0  0  0  0  0  0  0  0999 V2000
   -7.6085   50.9103   52.6775 C   0  0  0  0  0  0  0  0  0  0  0  0
   -8.3808   51.5349   51.5255 C   0  0  0  0  0  0  0  0  0  0  0  0
   -9.7614   51.3313   51.7099 O   0  0  0  0  0  0  0  0  0  0  0  0
  -10.3879   50.1968   51.2357 C   0  0  0  0  0  0  0  0  0  0  0  0
   -9.6897   49.1406   50.6655 C   0  0  0  0  0  0  0  0  0  0  0  0
  -10.3612   48.0283   50.2064 C   0  0  0  0  0  0  0  0  0  0  0  0
  -11.7281   47.9387   50.3013 C   0  0  0  0  0  0  0  0  0  0  0  0
  -12.4670   46.7862   49.8305 C   0  0  0  0  0  0  0  0  0  0  0  0
  -12.0500   45.5282   49.6474 N   0  0  0  0  0  0  0  0  0  0  0  0
  -13.0512   44.8063   49.2057 O   0  0  0  0  0  0  0  0  0  0  0  0
  -14.1308   45.5216   49.0812 N   0  0  0  0  0  0  0  0  0  0  0  0
  -13.7911   46.7881   49.4717 C   0  0  0  0  0  0  0  0  0  0  0  0
  -14.6561   47.9172   49.5019 N   0  0  0  0  0  0  0  0  0  0  0  0
  -15.9109   47.9595   48.8897 C   0  0  0  0  0  0  0  0  0  0  0  0
  -16.2483   46.9274   48.2239 O   0  0  0  0  0  0  0  0  0  0  0  0
  -16.8440   49.0714   48.9535 C   0  0  0  0  0  0  0  0  0  0  0  0
  -18.0948   49.0279   48.3876 C   0  0  0  0  0  0  0  0  0  0  0  0
  -18.9932   50.0697   48.4362 C   0  0  0  0  0  0  0  0  0  0  0  0
  -18.6106   51.2225   49.0928 C   0  0  0  0  0  0  0  0  0  0  0  0
  -19.4944   52.2947   49.1608 O   0  0  0  0  0  0  0  0  0  0  0  0
  -20.5243   52.2957   50.1405 C   0  0  0  0  0  0  0  0  0  0  0  0
  -17.3711   51.3192   49.6765 C   0  0  0  0  0  0  0  0  0  0  0  0
  -16.5053   50.2430   49.5989 C   0  0  0  0  0  0  0  0  0  0  0  0
  -12.3936   49.0105   50.8755 C   0  0  0  0  0  0  0  0  0  0  0  0
  -11.7606   50.1379   51.3456 C   0  0  0  0  0  0  0  0  0  0  0  0
  -12.5398   51.2609   51.9554 C   0  0  0  0  0  0  0  0  0  0  0  0
  1  2  1  0
  2  3  1  0
  3  4  1  0
  4  5  2  0
  5  6  1  0
  6  7  2  0
  7  8  1  0
  8  9  2  0
  9 10  1  0
 10 11  1  0
 11 12  2  0
 12 13  1  0
 13 14  1  0
 14 15  2  0
 14 16  1  0
 16 17  2  0
 17 18  1  0
 18 19  2  0
 19 20  1  0
 20 21  1  0
 19 22  1  0
 22 23  2  0
  7 24  1  0
 24 25  2  0
 25 26  1  0
 25  4  1  0
 12  8  1  0
 23 16  1  0
M  END
$$$$
