
     RDKit          3D

 16 17  0  0  0  0  0  0  0  0999 V2000
  149.5880  147.7977  137.6201 N   0  0  0  0  0  1  0  0  0  0  0  0
  149.2557  146.4354  138.0588 C   0  0  0  0  0  0  0  0  0  0  0  0
  150.2302  146.1159  139.1990 C   0  0  0  0  0  0  0  0  0  0  0  0
  149.4680  146.2735  140.4444 C   0  0  0  0  0  0  0  0  0  0  0  0
  149.8857  145.9112  141.6321 C   0  0  0  0  0  0  0  0  0  0  0  0
  151.3470  145.7023  141.7254 C   0  0  0  0  0  0  0  0  0  0  0  0
  151.7943  145.1401  142.9955 C   0  0  0  0  0  0  0  0  0  0  0  0
  152.9635  144.2233  142.8672 C   0  0  0  0  0  0  0  0  0  0  0  0
  154.1328  145.0095  142.9486 O   0  0  0  0  0  0  0  0  0  0  0  0
  151.4000  145.2635  144.2085 N   0  0  0  0  0  0  0  0  0  0  0  0
  150.3347  146.0393  144.7148 C   0  0  0  0  0  0  0  0  0  0  0  0
  149.0743  145.8168  143.9658 C   0  0  0  0  0  0  0  0  0  0  0  0
  148.8940  145.7645  142.6751 C   0  0  0  0  0  0  0  0  0  0  0  0
  147.4635  145.5303  142.8567 C   0  0  0  0  0  0  0  0  0  0  0  0
  146.3947  145.3380  141.9693 N   0  0  0  0  0  0  0  0  0  0  0  0
  147.6317  145.5810  144.1684 C   0  0  0  0  0  0  0  0  0  0  0  0
  1  2  1  0
  2  3  1  0
  3  4  1  0
  4  5  2  3
  5  6  1  0
  6  7  1  0
  7  8  1  0
  8  9  1  0
  7 10  2  0
 10 11  1  0
 11 12  1  0
 12 13  2  0
 13 14  1  0
 14 15  1  0
 14 16  2  0
 13  5  1  0
 16 12  1  0
M  CHG  1   1  -1
M  RAD  1   1   2
M  END
$$$$
