
     RDKit          3D

 18 19  0  0  0  0  0  0  0  0999 V2000
  168.9306  139.6486  154.2354 C   0  0  0  0  0  0  0  0  0  0  0  0
  168.3596  140.4236  155.3505 C   0  0  0  0  0  0  0  0  0  0  0  0
  167.0659  140.8902  155.2797 C   0  0  0  0  0  0  0  0  0  0  0  0
  166.4912  141.6131  156.2869 C   0  0  0  0  0  0  0  0  0  0  0  0
  167.2198  141.9115  157.4569 C   0  0  0  0  0  0  0  0  0  0  0  0
  168.5014  141.4595  157.5480 C   0  0  0  0  0  0  0  0  0  0  0  0
  169.3204  141.7409  158.7595 C   0  0  0  0  0  0  0  0  0  0  0  0
  170.0196  140.7695  159.1098 O   0  0  0  0  0  0  0  0  0  0  0  0
  169.3058  142.9789  159.4397 C   0  0  0  0  0  0  0  0  0  0  0  0
  170.0186  143.5274  160.3225 C   0  0  0  0  0  0  0  0  0  0  0  0
  170.0048  144.7985  160.9866 C   0  0  0  0  0  0  0  0  0  0  0  0
  169.0575  145.7767  160.9087 C   0  0  0  0  0  0  0  0  0  0  0  0
  169.2020  147.0115  161.5303 C   0  0  0  0  0  0  0  0  0  0  0  0
  170.3166  147.3253  162.2706 C   0  0  0  0  0  0  0  0  0  0  0  0
  171.2995  146.3664  162.3797 C   0  0  0  0  0  0  0  0  0  0  0  0
  172.4332  146.6796  163.1319 O   0  0  0  0  0  0  0  0  0  0  0  0
  171.1341  145.1699  161.7620 C   0  0  0  0  0  0  0  0  0  0  0  0
  169.0526  140.7252  156.4993 C   0  0  0  0  0  0  0  0  0  0  0  0
  1  2  1  0
  2  3  2  0
  3  4  1  0
  4  5  2  0
  5  6  1  0
  6  7  1  0
  7  8  2  0
  7  9  1  0
  9 10  2  3
 10 11  1  0
 11 12  2  0
 12 13  1  0
 13 14  2  0
 14 15  1  0
 15 16  1  0
 15 17  2  0
  6 18  2  0
 18  2  1  0
 17 11  1  0
M  END
$$$$
