
     RDKit          3D

 24 26  0  0  0  0  0  0  0  0999 V2000
   17.3003    6.0607   10.1663 O   0  0  0  0  0  0  0  0  0  0  0  0
   16.8547    6.8536    9.1202 C   0  0  0  0  0  0  0  0  0  0  0  0
   16.2463    8.0773    9.3178 C   0  0  0  0  0  0  0  0  0  0  0  0
   16.0969    8.4844   10.5987 F   0  0  0  0  0  0  0  0  0  0  0  0
   15.8250    8.8191    8.2391 C   0  0  0  0  0  0  0  0  0  0  0  0
   15.9883    8.3829    6.9420 C   0  0  0  0  0  0  0  0  0  0  0  0
   15.5270    9.2041    5.7855 C   0  0  0  0  0  0  0  0  0  0  0  0
   14.1137    9.0949    5.6699 N   0  0  0  0  0  0  0  0  0  0  0  0
   13.4905   10.0799    4.8635 C   0  0  0  0  0  0  0  0  0  0  0  0
   12.0019   10.0277    4.8170 C   0  0  0  0  0  0  0  0  0  0  0  0
   11.3816    8.8624    5.2781 N   0  0  0  0  0  0  0  0  0  0  0  0
   10.0836    8.5536    4.7749 C   0  0  0  0  0  0  0  0  0  0  0  0
    9.7191    7.1357    4.7742 C   0  0  0  0  0  0  0  0  0  0  0  0
    9.2715    6.5524    5.9383 C   0  0  0  0  0  0  0  0  0  0  0  0
    8.9173    5.2193    5.9892 C   0  0  0  0  0  0  0  0  0  0  0  0
    8.9984    4.4165    4.8706 C   0  0  0  0  0  0  0  0  0  0  0  0
    8.5071    2.5619    4.9353 Br  0  0  0  0  0  0  0  0  0  0  0  0
    9.4477    4.9999    3.6994 C   0  0  0  0  0  0  0  0  0  0  0  0
    9.8053    6.3415    3.6441 C   0  0  0  0  0  0  0  0  0  0  0  0
   12.1350    7.8076    5.8209 C   0  0  0  0  0  0  0  0  0  0  0  0
   13.5886    7.7844    5.4778 C   0  0  0  0  0  0  0  0  0  0  0  0
   16.6022    7.1501    6.7641 C   0  0  0  0  0  0  0  0  0  0  0  0
   17.0280    6.3990    7.8395 C   0  0  0  0  0  0  0  0  0  0  0  0
   17.6216    5.2026    7.6172 F   0  0  0  0  0  0  0  0  0  0  0  0
  1  2  1  0
  2  3  2  0
  3  4  1  0
  3  5  1  0
  5  6  2  0
  6  7  1  0
  7  8  1  0
  8  9  1  0
  9 10  1  0
 10 11  1  0
 11 12  1  0
 12 13  1  0
 13 14  2  0
 14 15  1  0
 15 16  2  0
 16 17  1  0
 16 18  1  0
 18 19  2  0
 11 20  1  0
 20 21  1  0
  6 22  1  0
 22 23  2  0
 23 24  1  0
 23  2  1  0
 21  8  1  0
 19 13  1  0
M  END
$$$$
