
     RDKit          3D

 18 19  0  0  0  0  0  0  0  0999 V2000
   -8.9664   -3.8751  -59.2293 C   0  0  0  0  0  0  0  0  0  0  0  0
   -8.2010   -4.2512  -58.2094 C   0  0  0  0  0  0  0  0  0  0  0  0
   -7.7421   -3.0963  -56.9991 Cl  0  0  0  0  0  0  0  0  0  0  0  0
   -7.7319   -5.6485  -58.0903 C   0  0  0  0  0  0  0  0  0  0  0  0
   -6.4194   -5.6395  -57.5789 O   0  0  0  0  0  0  0  0  0  0  0  0
   -5.3728   -5.8033  -58.5080 C   0  0  0  0  0  0  0  0  0  0  0  0
   -5.5769   -6.4838  -59.6884 C   0  0  0  0  0  0  0  0  0  0  0  0
   -4.5599   -6.6495  -60.6031 C   0  0  0  0  0  0  0  0  0  0  0  0
   -3.3281   -6.1336  -60.3416 C   0  0  0  0  0  0  0  0  0  0  0  0
   -2.3227   -6.3109  -61.2703 C   0  0  0  0  0  0  0  0  0  0  0  0
   -2.5513   -7.0411  -62.5256 C   0  0  0  0  0  0  0  0  0  0  0  0
   -2.2752   -6.2603  -63.7690 C   0  0  0  0  0  0  0  0  0  0  0  0
   -1.0970   -5.7671  -60.9516 C   0  0  0  0  0  0  0  0  0  0  0  0
   -0.9444   -5.0928  -59.7533 C   0  0  0  0  0  0  0  0  0  0  0  0
    0.1996   -4.5929  -59.4714 O   0  0  0  0  0  0  0  0  0  0  0  0
   -1.9290   -4.9516  -58.9048 O   0  0  0  0  0  0  0  0  0  0  0  0
   -3.1283   -5.4459  -59.1450 C   0  0  0  0  0  0  0  0  0  0  0  0
   -4.1354   -5.2766  -58.2295 C   0  0  0  0  0  0  0  0  0  0  0  0
  1  2  2  0
  2  3  1  0
  2  4  1  0
  4  5  1  0
  5  6  1  0
  6  7  2  0
  7  8  1  0
  8  9  2  0
  9 10  1  0
 10 11  1  0
 11 12  1  0
 10 13  2  0
 13 14  1  0
 14 15  2  0
 14 16  1  0
 16 17  1  0
 17 18  2  0
 18  6  1  0
 17  9  1  0
M  END
$$$$
