
     RDKit          3D

 39 40  0  0  0  0  0  0  0  0999 V2000
  -10.1511   -8.7518  -57.5344 C   0  0  0  0  0  0  0  0  0  0  0  0
   -9.3489   -9.5416  -58.1917 C   0  0  0  0  0  0  0  0  0  0  0  0
   -8.6045  -10.7170  -57.8482 C   0  0  0  0  0  0  0  0  0  0  0  0
   -7.8259  -11.4313  -58.8397 C   0  0  0  0  0  0  0  0  0  0  0  0
   -8.0725  -12.3135  -59.6957 C   0  0  0  0  0  0  0  0  0  0  0  0
   -6.9241  -12.7508  -60.6166 C   0  0  0  0  0  0  0  0  0  0  0  0
   -6.0352  -13.0738  -61.3178 C   0  0  0  0  0  0  0  0  0  0  0  0
   -4.9447  -13.4601  -62.1700 C   0  0  0  0  0  0  0  0  0  0  0  0
   -4.5627  -12.4243  -63.0671 N   0  0  0  0  0  0  0  0  0  0  0  0
   -3.6649  -11.3590  -62.8027 C   0  0  0  0  0  0  0  0  0  0  0  0
   -3.3546  -10.5374  -63.7859 C   0  0  0  0  0  0  0  0  0  0  0  0
   -2.2799   -9.1542  -63.4927 S   0  0  0  0  0  0  0  0  0  0  0  0
   -2.6249   -8.2407  -62.0309 C   0  0  0  0  0  0  0  0  0  0  0  0
   -1.5441   -7.8108  -61.3716 C   0  0  0  0  0  0  0  0  0  0  0  0
   -1.3997   -7.0270  -60.1343 C   0  0  0  0  0  0  0  0  0  0  0  0
   -2.1458   -6.0862  -59.5025 C   0  0  0  0  0  0  0  0  0  0  0  0
   -1.4874   -5.6522  -58.2840 C   0  0  0  0  0  0  0  0  0  0  0  0
   -0.1859   -5.1011  -58.3876 N   0  0  0  0  0  0  0  0  0  0  0  0
    0.6931   -4.6587  -57.6739 C   0  0  0  0  0  0  0  0  0  0  0  0
    1.8337   -3.8678  -58.2831 C   0  0  0  0  0  0  0  0  0  0  0  0
    1.5422   -3.5543  -59.7409 C   0  0  0  0  0  0  0  0  0  0  0  0
    0.7772   -4.8084  -56.2879 N   0  0  0  0  0  0  0  0  0  0  0  0
    1.5442   -4.0756  -55.3430 C   0  0  0  0  0  0  0  0  0  0  0  0
    1.2557   -4.5620  -53.9117 C   0  0  0  0  0  0  0  0  0  0  0  0
    1.9516   -3.6911  -52.9081 C   0  0  0  0  0  0  0  0  0  0  0  0
   -3.3651   -5.4362  -59.8406 C   0  0  0  0  0  0  0  0  0  0  0  0
   -3.4655   -4.0432  -59.3870 C   0  0  0  0  0  0  0  0  0  0  0  0
   -4.7542   -3.3653  -59.5636 C   0  0  0  0  0  0  0  0  0  0  0  0
   -5.7410   -3.3052  -58.7924 N   0  0  0  0  0  0  0  0  0  0  0  0
   -6.7511   -4.2933  -58.7181 C   0  0  0  0  0  0  0  0  0  0  0  0
   -7.8508   -3.9166  -57.7682 C   0  0  0  0  0  0  0  0  0  0  0  0
   -8.8045   -4.7966  -57.5430 C   0  0  0  0  0  0  0  0  0  0  0  0
   -4.4366   -5.8393  -60.5188 N   0  0  0  0  0  0  0  0  0  0  0  0
   -4.7847   -7.0666  -61.1693 C   0  0  0  0  0  0  0  0  0  0  0  0
   -6.1439   -7.2193  -61.1001 C   0  0  0  0  0  0  0  0  0  0  0  0
   -6.7831   -8.3479  -61.6256 C   0  0  0  0  0  0  0  0  0  0  0  0
   -6.0170   -9.3356  -62.2315 C   0  0  0  0  0  0  0  0  0  0  0  0
   -4.6629   -9.1971  -62.3076 C   0  0  0  0  0  0  0  0  0  0  0  0
   -4.0520   -8.0572  -61.7757 C   0  0  0  0  0  0  0  0  0  0  0  0
  1  2  2  0
  2  3  1  0
  3  4  1  0
  4  5  2  3
  5  6  1  0
  6  7  3  0
  7  8  1  0
  8  9  1  0
  9 10  1  0
 10 11  2  3
 11 12  1  0
 12 13  1  0
 13 14  2  0
 14 15  1  0
 15 16  2  0
 16 17  1  0
 17 18  1  0
 18 19  2  3
 19 20  1  0
 20 21  1  0
 19 22  1  0
 22 23  1  0
 23 24  1  0
 24 25  1  0
 16 26  1  0
 26 27  1  0
 27 28  1  0
 28 29  2  3
 29 30  1  0
 30 31  1  0
 31 32  2  0
 26 33  2  0
 33 34  1  0
 34 35  2  0
 35 36  1  0
 36 37  2  0
 37 38  1  0
 38 39  2  0
 39 13  1  0
 39 34  1  0
M  END
$$$$
