
     RDKit          3D

 21 22  0  0  0  0  0  0  0  0999 V2000
  157.8242  153.4079  147.5651 C   0  0  0  0  0  0  0  0  0  0  0  0
  156.8914  152.6975  146.8519 C   0  0  0  0  0  0  0  0  0  0  0  0
  157.3419  151.8974  145.7338 C   0  0  0  0  0  0  0  0  0  0  0  0
  156.8703  150.9155  145.0421 C   0  0  0  0  0  0  0  0  0  0  0  0
  155.6286  150.1771  145.0992 C   0  0  0  0  0  0  0  0  0  0  0  0
  154.4357  150.5363  144.6676 C   0  0  0  0  0  0  0  0  0  0  0  0
  153.1991  149.6972  144.7682 C   0  0  0  0  0  0  0  0  0  0  0  0
  152.1262  150.3414  143.9067 C   0  0  0  0  0  0  0  0  0  0  0  0
  151.4065  149.6731  142.9243 N   0  0  0  0  0  0  0  0  0  0  0  0
  151.4662  148.2226  142.8449 C   0  0  0  0  0  0  0  0  0  0  0  0
  150.0766  147.6339  142.7632 C   0  0  0  0  0  0  0  0  0  0  0  0
  149.7245  146.9836  143.9232 O   0  0  0  0  0  0  0  0  0  0  0  0
  151.9779  151.6111  144.2455 N   0  0  0  0  0  0  0  0  0  0  0  0
  153.1488  152.4134  144.3336 C   0  0  0  0  0  0  0  0  0  0  0  0
  154.2706  151.7994  144.0555 N   0  0  0  0  0  0  0  0  0  0  0  0
  153.2936  153.7514  144.7251 N   0  0  0  0  0  3  0  0  0  0  0  0
  154.2943  154.0369  145.5578 C   0  0  0  0  0  0  0  0  0  0  0  0
  154.3626  153.2385  146.5593 C   0  0  0  0  0  0  0  0  0  0  0  0
  155.5421  152.8553  147.3605 C   0  0  0  0  0  0  0  0  0  0  0  0
  155.3252  152.6384  148.6826 C   0  0  0  0  0  0  0  0  0  0  0  0
  156.2098  153.4797  149.8866 Cl  0  0  0  0  0  0  0  0  0  0  0  0
  1  2  2  0
  2  3  1  0
  3  4  2  0
  4  5  1  0
  5  6  2  0
  6  7  1  0
  7  8  1  0
  8  9  1  0
  9 10  1  0
 10 11  1  0
 11 12  1  0
  8 13  2  0
 13 14  1  0
 14 15  2  0
 14 16  1  0
 16 17  2  0
 17 18  2  0
 18 19  1  0
 19 20  2  3
 20 21  1  0
 19  2  1  0
 15  6  1  0
M  CHG  1  16   1
M  RAD  1  16   2
M  END
$$$$
