
     RDKit          3D

 26 26  0  0  0  0  0  0  0  0999 V2000
  150.9083  144.5852  142.2381 C   0  0  0  0  0  0  0  0  0  0  0  0
  150.8003  145.5408  142.9734 C   0  0  0  0  0  0  0  0  0  0  0  0
  150.6228  144.0780  144.5758 Cl  0  0  0  0  0  0  0  0  0  0  0  0
  150.6814  146.6196  143.8932 C   0  0  0  0  0  0  0  0  0  0  0  0
  149.2611  147.2130  144.6390 Cl  0  0  0  0  0  0  0  0  0  0  0  0
  151.8727  147.1413  144.3177 C   0  0  0  0  0  0  0  0  0  0  0  0
  151.7582  148.3130  145.2352 C   0  0  0  0  0  0  0  0  0  0  0  0
  152.7811  148.8152  145.8619 C   0  0  0  0  0  0  0  0  0  0  0  0
  153.0062  149.7992  146.8049 N   0  0  0  0  0  0  0  0  0  0  0  0
  154.3062  150.5736  146.8641 B   0  0  0  0  0  0  0  0  0  0  0  0
  155.6024  149.9764  146.1623 C   0  0  0  0  0  0  0  0  0  0  0  0
  156.6022  150.8864  145.9975 C   0  0  0  0  0  0  0  0  0  0  0  0
  156.5389  152.2256  146.3828 C   0  0  0  0  0  0  0  0  0  0  0  0
  155.4998  152.8693  146.9811 C   0  0  0  0  0  0  0  0  0  0  0  0
  154.3294  152.0760  147.2623 C   0  0  0  0  0  0  0  0  0  0  0  0
  153.2458  152.5528  147.8890 C   0  0  0  0  0  0  0  0  0  0  0  0
  153.0341  153.7214  148.5834 N   0  0  0  0  0  0  0  0  0  0  0  0
  151.9371  154.1087  149.3573 C   0  0  0  0  0  0  0  0  0  0  0  0
  150.7864  154.4034  148.4882 N   0  0  0  0  0  0  0  0  0  0  0  0
  152.1660  155.4354  150.0653 N   0  0  0  0  0  0  0  0  0  0  0  0
  151.3076  155.7084  151.0121 C   0  0  0  0  0  0  0  0  0  0  0  0
  151.6298  156.7250  151.8426 O   0  0  0  0  0  0  0  0  0  0  0  0
  151.2277  157.2512  152.9372 N   0  0  0  0  0  0  0  0  0  0  0  0
  151.7841  158.3478  153.6039 C   0  0  0  0  0  0  0  0  0  0  0  0
  150.9083  158.7153  154.7574 C   0  0  0  0  0  0  0  0  0  0  0  0
  150.2656  159.0036  155.6261 O   0  0  0  0  0  3  0  0  0  0  0  0
  1  2  2  0
  2  3  1  0
  2  4  1  0
  4  5  1  0
  4  6  2  3
  6  7  1  0
  7  8  2  3
  8  9  1  0
  9 10  1  0
 10 11  1  0
 11 12  2  0
 12 13  1  0
 13 14  2  0
 14 15  1  0
 15 16  2  3
 16 17  1  0
 17 18  1  0
 18 19  1  0
 18 20  1  0
 20 21  2  3
 21 22  1  0
 22 23  1  0
 23 24  1  0
 24 25  1  0
 25 26  3  0
 15 10  1  0
M  CHG  1  26   1
M  END
$$$$
