
     RDKit          3D

 19 19  0  0  0  0  0  0  0  0999 V2000
   -3.1734   -9.3585  -63.5359 C   0  0  0  0  0  0  0  0  0  0  0  0
   -2.0697   -8.3753  -63.2493 C   0  0  2  0  0  0  0  0  0  0  0  0
   -1.0951   -9.0169  -62.5040 O   0  0  0  0  0  0  0  0  0  0  0  0
   -2.6689   -7.1979  -62.5132 C   0  0  0  0  0  0  0  0  0  0  0  0
   -1.5842   -6.2417  -62.0334 C   0  0  1  0  0  0  0  0  0  0  0  0
   -1.1848   -5.3169  -63.1296 C   0  0  0  0  0  0  0  0  0  0  0  0
   -2.0159   -5.5497  -60.8247 N   0  0  0  0  0  0  0  0  0  0  0  0
   -2.2717   -6.2484  -59.6462 C   0  0  0  0  0  0  0  0  0  0  0  0
   -1.6048   -7.3280  -59.4839 O   0  0  0  0  0  0  0  0  0  0  0  0
   -3.2154   -5.8449  -58.6223 C   0  0  0  0  0  0  0  0  0  0  0  0
   -4.1568   -4.8683  -58.7770 C   0  0  0  0  0  0  0  0  0  0  0  0
   -4.2886   -4.1686  -59.9520 O   0  0  0  0  0  0  0  0  0  0  0  0
   -5.0345   -4.5308  -57.7475 C   0  0  0  0  0  0  0  0  0  0  0  0
   -6.0200   -3.4758  -57.9764 C   0  0  0  0  0  0  0  0  0  0  0  0
   -6.0600   -2.9041  -59.0735 O   0  0  0  0  0  0  0  0  0  0  0  0
   -6.9066   -3.1092  -56.9843 O   0  0  0  0  0  0  0  0  0  0  0  0
   -4.9491   -5.1988  -56.5467 C   0  0  0  0  0  0  0  0  0  0  0  0
   -4.0032   -6.1944  -56.3617 C   0  0  0  0  0  0  0  0  0  0  0  0
   -3.1611   -6.4975  -57.3919 C   0  0  0  0  0  0  0  0  0  0  0  0
  2  1  1  1
  2  3  1  0
  2  4  1  0
  4  5  1  0
  5  6  1  6
  5  7  1  0
  7  8  1  0
  8  9  2  0
  8 10  1  0
 10 11  2  0
 11 12  1  0
 11 13  1  0
 13 14  1  0
 14 15  2  0
 14 16  1  0
 13 17  2  0
 17 18  1  0
 18 19  2  0
 19 10  1  0
M  END
$$$$
