
     RDKit          3D

 20 22  0  0  0  0  0  0  0  0999 V2000
    0.7732   -5.0742  -55.7275 N   0  0  0  0  0  0  0  0  0  0  0  0
    1.5033   -5.6118  -56.7271 O   0  0  0  0  0  0  0  0  0  0  0  0
    0.5836   -6.7465  -57.6108 P   0  0  0  0  0  2  0  0  0  0  0  0
    0.2144   -6.0774  -59.1489 N   0  0  0  0  0  0  0  0  0  0  0  0
   -1.1950   -6.1059  -59.4796 C   0  0  0  0  0  0  0  0  0  0  0  0
   -1.7827   -4.7922  -59.6526 C   0  0  0  0  0  0  0  0  0  0  0  0
   -2.4863   -4.4649  -60.7104 C   0  0  0  0  0  0  0  0  0  0  0  0
   -3.1601   -3.1417  -61.0337 C   0  0  0  0  0  0  0  0  0  0  0  0
   -2.0851   -2.1239  -60.9271 C   0  0  0  0  0  0  0  0  0  0  0  0
   -1.7528   -1.2619  -62.4077 Cl  0  0  0  0  0  0  0  0  0  0  0  0
   -1.3907   -1.8369  -59.8338 C   0  0  0  0  0  0  0  0  0  0  0  0
   -1.5245   -2.4628  -58.4665 C   0  0  0  0  0  0  0  0  0  0  0  0
   -1.5178   -3.8989  -58.5595 N   0  0  0  0  0  0  0  0  0  0  0  0
   -2.7143   -5.3918  -61.7577 N   0  0  0  0  0  0  0  0  0  0  0  0
   -2.1667   -6.7005  -61.6535 C   0  0  0  0  0  0  0  0  0  0  0  0
   -2.4161   -7.5744  -62.7034 C   0  0  0  0  0  0  0  0  0  0  0  0
   -1.8954   -8.8524  -62.6269 C   0  0  0  0  0  0  0  0  0  0  0  0
   -1.1542   -9.2477  -61.5470 C   0  0  0  0  0  0  0  0  0  0  0  0
   -0.9300   -8.3399  -60.5200 C   0  0  0  0  0  0  0  0  0  0  0  0
   -1.4279   -7.0617  -60.5549 C   0  0  0  0  0  0  0  0  0  0  0  0
  1  2  1  0
  2  3  1  0
  3  4  1  0
  4  5  1  0
  5  6  1  0
  6  7  2  0
  7  8  1  0
  8  9  1  0
  9 10  1  0
  9 11  2  0
 11 12  1  0
 12 13  1  0
  7 14  1  0
 14 15  1  0
 15 16  2  0
 16 17  1  0
 17 18  2  0
 18 19  1  0
 19 20  2  0
 20  5  1  0
 13  6  1  0
 20 15  1  0
M  CHG  1   3  -1
M  END
$$$$
