
     RDKit          3D

 17 17  0  0  0  0  0  0  0  0999 V2000
  151.4557  161.1639  156.2198 C   0  0  0  0  0  0  0  0  0  0  0  0
  150.2093  160.3224  156.1095 C   0  0  0  0  0  0  0  0  0  0  0  0
  150.5141  158.6384  156.5378 S   0  0  0  0  0  6  0  0  0  0  0  0
  149.1782  157.9641  156.7516 O   0  0  0  0  0  0  0  0  0  0  0  0
  151.1733  158.6531  157.8925 O   0  0  0  0  0  0  0  0  0  0  0  0
  151.4827  157.7759  155.4423 N   0  0  0  0  0  0  0  0  0  0  0  0
  151.3019  156.4692  154.9600 C   0  0  0  0  0  0  0  0  0  0  0  0
  150.7526  155.4049  155.6299 C   0  0  0  0  0  0  0  0  0  0  0  0
  150.6054  154.1512  155.0416 C   0  0  0  0  0  0  0  0  0  0  0  0
  150.0113  153.0576  155.8141 C   0  0  0  0  0  0  0  0  0  0  0  0
  150.3158  151.8565  155.6075 O   0  0  0  0  0  0  0  0  0  0  0  0
  149.0883  153.3196  156.8035 O   0  0  0  0  0  0  0  0  0  0  0  0
  149.3438  152.9917  158.1787 C   0  0  0  0  0  0  0  0  0  0  0  0
  151.0314  154.0069  153.7513 C   0  0  0  0  0  0  0  0  0  0  0  0
  151.5893  155.0211  153.0160 C   0  0  0  0  0  0  0  0  0  0  0  0
  151.7154  156.2443  153.6392 C   0  0  0  0  0  0  0  0  0  0  0  0
  152.2753  157.2697  152.9071 O   0  0  0  0  0  0  0  0  0  0  0  0
  1  2  1  0
  2  3  1  0
  3  4  2  0
  3  5  2  0
  3  6  1  0
  6  7  1  0
  7  8  2  0
  8  9  1  0
  9 10  1  0
 10 11  2  0
 10 12  1  0
 12 13  1  0
  9 14  2  0
 14 15  1  0
 15 16  2  0
 16 17  1  0
 16  7  1  0
M  END
$$$$
