
     RDKit          3D

 26 28  0  0  0  0  0  0  0  0999 V2000
  159.5790  140.4791  171.4723 C   0  0  0  0  0  0  0  0  0  0  0  0
  160.1790  139.2622  170.8660 C   0  0  0  0  0  0  0  0  0  0  0  0
  161.5107  138.7395  171.2672 C   0  0  0  0  0  0  0  0  0  0  0  0
  159.5379  138.5847  169.9281 C   0  0  0  0  0  0  0  0  0  0  0  0
  158.7722  137.3193  170.0017 C   0  0  0  0  0  0  0  0  0  0  0  0
  158.2780  136.9575  168.6481 C   0  0  0  0  0  0  0  0  0  0  0  0
  157.0738  137.3725  168.1452 C   0  0  0  0  0  0  0  0  0  0  0  0
  156.2392  138.1722  168.9124 O   0  0  0  0  0  0  0  0  0  0  0  0
  156.6150  137.0417  166.8890 C   0  0  0  0  0  0  0  0  0  0  0  0
  157.4079  136.2458  166.0829 C   0  0  0  0  0  0  0  0  0  0  0  0
  158.6268  135.8135  166.5654 C   0  0  0  0  0  0  0  0  0  0  0  0
  159.0681  136.1561  167.8267 C   0  0  0  0  0  0  0  0  0  0  0  0
  160.3101  135.6929  168.2687 O   0  0  0  0  0  0  0  0  0  0  0  0
  159.4563  134.9655  165.6862 C   0  0  0  0  0  0  0  0  0  0  0  0
  160.6857  134.8142  165.9450 O   0  0  0  0  0  0  0  0  0  0  0  0
  158.9372  134.2591  164.4892 C   0  0  0  0  0  0  0  0  0  0  0  0
  159.0969  132.7960  164.6000 C   0  0  0  0  0  0  0  0  0  0  0  0
  157.9628  132.0256  164.8631 C   0  0  0  0  0  0  0  0  0  0  0  0
  158.0830  130.6355  164.9736 C   0  0  0  0  0  0  0  0  0  0  0  0
  159.3194  130.0284  164.8228 C   0  0  0  0  0  0  0  0  0  0  0  0
  159.5236  128.6564  164.9173 O   0  0  0  0  0  0  0  0  0  0  0  0
  160.4356  130.8298  164.5598 C   0  0  0  0  0  0  0  0  0  0  0  0
  160.3374  132.1985  164.4475 C   0  0  0  0  0  0  0  0  0  0  0  0
  161.4026  133.0401  164.1894 O   0  0  0  0  0  0  0  0  0  0  0  0
  157.4648  134.5402  164.3135 C   0  0  0  0  0  0  0  0  0  0  0  0
  157.1015  135.8217  164.8020 O   0  0  0  0  0  0  0  0  0  0  0  0
  1  2  1  0
  2  3  1  0
  2  4  2  3
  4  5  1  0
  5  6  1  0
  6  7  2  0
  7  8  1  0
  7  9  1  0
  9 10  2  0
 10 11  1  0
 11 12  2  0
 12 13  1  0
 11 14  1  0
 14 15  2  0
 14 16  1  0
 16 17  1  0
 17 18  2  0
 18 19  1  0
 19 20  2  0
 20 21  1  0
 20 22  1  0
 22 23  2  0
 23 24  1  0
 16 25  1  0
 25 26  1  0
 12  6  1  0
 23 17  1  0
 26 10  1  0
M  END
$$$$
