
     RDKit          3D

 26 28  0  0  0  0  0  0  0  0999 V2000
  157.6205  141.1086  166.5819 C   0  0  0  0  0  0  0  0  0  0  0  0
  157.9895  140.8312  167.9945 C   0  0  0  0  0  0  0  0  0  0  0  0
  158.5489  141.8709  168.8964 C   0  0  0  0  0  0  0  0  0  0  0  0
  157.8306  139.6245  168.5128 C   0  0  0  0  0  0  0  0  0  0  0  0
  158.7943  138.7304  169.1945 C   0  0  0  0  0  0  0  0  0  0  0  0
  158.1094  137.4747  169.5963 C   0  0  0  0  0  0  0  0  0  0  0  0
  157.4204  137.3300  170.7709 C   0  0  0  0  0  0  0  0  0  0  0  0
  157.3379  138.3893  171.6629 O   0  0  0  0  0  0  0  0  0  0  0  0
  156.7811  136.1680  171.1440 C   0  0  0  0  0  0  0  0  0  0  0  0
  156.8325  135.0808  170.2911 C   0  0  0  0  0  0  0  0  0  0  0  0
  157.5207  135.1997  169.1004 C   0  0  0  0  0  0  0  0  0  0  0  0
  158.1543  136.3726  168.7452 C   0  0  0  0  0  0  0  0  0  0  0  0
  158.8378  136.4421  167.5285 O   0  0  0  0  0  0  0  0  0  0  0  0
  157.5611  134.0258  168.2057 C   0  0  0  0  0  0  0  0  0  0  0  0
  157.8918  134.1767  166.9937 O   0  0  0  0  0  0  0  0  0  0  0  0
  157.2329  132.6450  168.6382 C   0  0  0  0  0  0  0  0  0  0  0  0
  158.3763  131.7274  168.4677 C   0  0  0  0  0  0  0  0  0  0  0  0
  158.9981  131.2267  169.6129 C   0  0  0  0  0  0  0  0  0  0  0  0
  160.0849  130.3545  169.4830 C   0  0  0  0  0  0  0  0  0  0  0  0
  160.5404  129.9905  168.2259 C   0  0  0  0  0  0  0  0  0  0  0  0
  161.6116  129.1308  168.0108 O   0  0  0  0  0  0  0  0  0  0  0  0
  159.8947  130.5105  167.0990 C   0  0  0  0  0  0  0  0  0  0  0  0
  158.8241  131.3696  167.2066 C   0  0  0  0  0  0  0  0  0  0  0  0
  158.1477  131.9142  166.1316 O   0  0  0  0  0  0  0  0  0  0  0  0
  156.8564  132.6301  170.0997 C   0  0  0  0  0  0  0  0  0  0  0  0
  156.2493  133.8452  170.5095 O   0  0  0  0  0  0  0  0  0  0  0  0
  1  2  1  0
  2  3  1  0
  2  4  2  3
  4  5  1  0
  5  6  1  0
  6  7  2  0
  7  8  1  0
  7  9  1  0
  9 10  2  0
 10 11  1  0
 11 12  2  0
 12 13  1  0
 11 14  1  0
 14 15  2  0
 14 16  1  0
 16 17  1  0
 17 18  2  0
 18 19  1  0
 19 20  2  0
 20 21  1  0
 20 22  1  0
 22 23  2  0
 23 24  1  0
 16 25  1  0
 25 26  1  0
 12  6  1  0
 23 17  1  0
 26 10  1  0
M  END
$$$$
