
     RDKit          3D

 24 25  0  0  0  0  0  0  0  0999 V2000
   10.5331   29.6243   -4.0042 C   0  0  0  0  0  0  0  0  0  0  0  0
    9.2702   29.9892   -4.7536 C   0  0  0  0  0  0  0  0  0  0  0  0
    8.2010   30.0861   -3.8594 O   0  0  0  0  0  0  0  0  0  0  0  0
    6.9372   30.5278   -4.2140 C   0  0  0  0  0  0  0  0  0  0  0  0
    6.6419   30.6352   -5.5725 C   0  0  0  0  0  0  0  0  0  0  0  0
    5.4122   31.0652   -6.0095 C   0  0  0  0  0  0  0  0  0  0  0  0
    4.4538   31.3962   -5.0784 C   0  0  0  0  0  0  0  0  0  0  0  0
    3.1059   31.8676   -5.4608 C   0  0  0  0  0  0  0  0  0  0  0  0
    3.2931   32.7765   -6.6769 C   0  0  0  0  0  0  0  0  0  0  0  0
    2.2412   30.7848   -5.8762 N   0  0  0  0  0  0  0  0  0  0  0  0
    2.6986   29.4563   -6.0708 C   0  0  0  0  0  0  0  0  0  0  0  0
    3.7145   29.1130   -5.4176 O   0  0  0  0  0  0  0  0  0  0  0  0
    2.0797   28.4900   -6.9580 C   0  0  0  0  0  0  0  0  0  0  0  0
    2.4825   27.1899   -7.0804 C   0  0  0  0  0  0  0  0  0  0  0  0
    1.8474   26.3004   -7.9538 C   0  0  0  0  0  0  0  0  0  0  0  0
    0.7842   26.7152   -8.7252 C   0  0  0  0  0  0  0  0  0  0  0  0
    0.3724   28.0206   -8.6088 C   0  0  0  0  0  0  0  0  0  0  0  0
   -0.6808   28.4589   -9.3630 F   0  0  0  0  0  0  0  0  0  0  0  0
    1.0173   28.8914   -7.7337 C   0  0  0  0  0  0  0  0  0  0  0  0
    4.7609   31.2847   -3.7432 C   0  0  0  0  0  0  0  0  0  0  0  0
    5.9820   30.8576   -3.2780 C   0  0  0  0  0  0  0  0  0  0  0  0
    6.3240   30.7341   -1.9437 O   0  0  0  0  0  0  0  0  0  0  0  0
    5.4779   30.9111   -0.8570 C   0  0  0  0  0  0  0  0  0  0  0  0
    6.2519   30.9241    0.4420 C   0  0  0  0  0  0  0  0  0  0  0  0
  1  2  1  0
  2  3  1  0
  3  4  1  0
  4  5  2  0
  5  6  1  0
  6  7  2  0
  7  8  1  0
  8  9  1  0
  8 10  1  0
 10 11  1  0
 11 12  2  0
 11 13  1  0
 13 14  2  0
 14 15  1  0
 15 16  2  0
 16 17  1  0
 17 18  1  0
 17 19  2  0
  7 20  1  0
 20 21  2  0
 21 22  1  0
 22 23  1  0
 23 24  1  0
 21  4  1  0
 19 13  1  0
M  END
$$$$
