
     RDKit          3D

 19 20  0  0  0  0  0  0  0  0999 V2000
  149.5377  154.6050  154.9812 C   0  0  0  0  0  0  0  0  0  0  0  0
  150.1133  155.8333  155.6427 C   0  0  0  0  0  0  0  0  0  0  0  0
  150.8171  156.7684  154.7509 C   0  0  0  0  0  0  0  0  0  0  0  0
  151.3050  157.8411  155.1493 O   0  0  0  0  0  0  0  0  0  0  0  0
  150.9382  156.4352  153.4162 O   0  0  0  0  0  0  0  0  0  0  0  0
  151.9374  157.0392  152.6219 C   0  0  0  0  0  0  0  0  0  0  0  0
  151.7590  156.7044  151.1847 C   0  0  0  0  0  0  0  0  0  0  0  0
  151.3061  155.4808  150.7403 C   0  0  0  0  0  0  0  0  0  0  0  0
  151.1429  155.1737  149.4147 C   0  0  0  0  0  0  0  0  0  0  0  0
  151.4469  156.1367  148.4789 C   0  0  0  0  0  0  0  0  0  0  0  0
  151.3008  155.8767  147.1561 F   0  0  0  0  0  0  0  0  0  0  0  0
  151.9084  157.3869  148.9014 C   0  0  0  0  0  0  0  0  0  0  0  0
  152.1991  158.3117  147.9675 F   0  0  0  0  0  0  0  0  0  0  0  0
  152.0661  157.6752  150.2552 C   0  0  0  0  0  0  0  0  0  0  0  0
  152.5139  158.8875  150.6718 F   0  0  0  0  0  0  0  0  0  0  0  0
  150.4534  155.7247  157.0783 C   0  0  0  0  0  0  0  0  0  0  0  0
  149.2357  156.5505  156.6782 C   0  0  0  0  0  0  0  0  0  0  0  0
  147.6286  155.8612  156.8614 Cl  0  0  0  0  0  0  0  0  0  0  0  0
  149.4271  158.3227  156.8390 Cl  0  0  0  0  0  0  0  0  0  0  0  0
  1  2  1  0
  2  3  1  0
  3  4  2  0
  3  5  1  0
  5  6  1  0
  6  7  1  0
  7  8  2  0
  8  9  1  0
  9 10  2  0
 10 11  1  0
 10 12  1  0
 12 13  1  0
 12 14  2  0
 14 15  1  0
  2 16  1  0
 16 17  1  0
 17 18  1  0
 17 19  1  0
 17  2  1  0
 14  7  1  0
M  END
$$$$
