
     RDKit          3D

 29 30  0  0  0  0  0  0  0  0999 V2000
    1.0540   -5.3775  -55.1252 O   0  0  0  0  0  0  0  0  0  0  0  0
    1.4069   -4.6309  -56.2427 C   0  0  0  0  0  0  0  0  0  0  0  0
    1.2664   -5.4383  -57.5002 C   0  0  0  0  0  0  0  0  0  0  0  0
    0.1727   -4.9499  -58.2693 N   0  0  0  0  0  0  0  0  0  0  0  0
   -1.1962   -5.4774  -58.2084 C   0  0  0  0  0  0  0  0  0  0  0  0
   -1.8227   -5.0362  -57.1278 C   0  0  0  0  0  0  0  0  0  0  0  0
   -3.0627   -5.2442  -56.6415 O   0  0  0  0  0  0  0  0  0  0  0  0
   -3.7332   -6.2172  -55.9482 C   0  0  0  0  0  0  0  0  0  0  0  0
   -5.0636   -5.6269  -55.4636 C   0  0  0  0  0  0  0  0  0  0  0  0
   -6.1516   -6.4709  -55.8994 N   0  0  0  0  0  0  0  0  0  0  0  0
   -7.1980   -5.6338  -56.4546 C   0  0  0  0  0  0  0  0  0  0  0  0
   -7.3275   -5.8186  -57.9721 C   0  0  0  0  0  0  0  0  0  0  0  0
   -6.1670   -5.0386  -58.6110 C   0  0  0  0  0  0  0  0  0  0  0  0
   -6.1136   -5.4141  -60.0413 C   0  0  0  0  0  0  0  0  0  0  0  0
   -5.0040   -5.4793  -60.7613 C   0  0  0  0  0  0  0  0  0  0  0  0
   -5.5352   -5.8957  -62.0691 C   0  0  0  0  0  0  0  0  0  0  0  0
   -5.0039   -6.5229  -63.1205 C   0  0  0  0  0  0  0  0  0  0  0  0
   -3.6619   -7.0236  -63.4003 C   0  0  0  0  0  0  0  0  0  0  0  0
   -2.5298   -6.9581  -62.7310 C   0  0  0  0  0  0  0  0  0  0  0  0
   -2.3063   -6.9040  -61.3229 N   0  0  0  0  0  0  0  0  0  0  0  0
   -2.6383   -6.0969  -60.3327 C   0  0  0  0  0  0  0  0  0  0  0  0
   -3.7123   -5.1664  -60.1915 C   0  0  0  0  0  0  0  0  0  0  0  0
   -1.5984   -6.3345  -59.2998 C   0  0  0  0  0  0  0  0  0  0  0  0
   -1.0012   -7.5520  -59.4239 C   0  0  0  0  0  0  0  0  0  0  0  0
   -0.9153   -8.2235  -60.6913 C   0  0  0  0  0  0  0  0  0  0  0  0
    0.1679   -8.2044  -61.4238 C   0  0  0  0  0  0  0  0  0  0  0  0
    1.0116   -6.6382  -61.5948 Cl  0  0  0  0  0  0  0  0  0  0  0  0
    0.7337   -9.3638  -62.1076 C   0  0  0  0  0  0  0  0  0  0  0  0
    0.7907   -8.9696  -63.8753 Cl  0  0  0  0  0  0  0  0  0  0  0  0
  1  2  1  0
  2  3  1  0
  3  4  1  0
  4  5  1  0
  5  6  2  0
  6  7  1  0
  7  8  1  0
  8  9  1  0
  9 10  1  0
 10 11  1  0
 11 12  1  0
 12 13  1  0
 13 14  1  0
 14 15  2  0
 15 16  1  0
 16 17  2  0
 17 18  1  0
 18 19  2  0
 19 20  1  0
 20 21  2  0
 21 22  1  0
 21 23  1  0
 23 24  2  3
 24 25  1  0
 25 26  2  3
 26 27  1  0
 26 28  1  0
 28 29  1  0
 23  5  1  0
 22 15  1  0
M  END
$$$$
