
     RDKit          3D

 14 15  0  0  0  0  0  0  0  0999 V2000
   -0.2318   29.1771   -7.5451 C   0  0  0  0  0  0  0  0  0  0  0  0
    1.1782   28.8144   -7.0995 C   0  0  0  0  0  0  0  0  0  0  0  0
    1.6929   27.7480   -7.9045 N   0  0  0  0  0  0  0  0  0  0  0  0
    2.3815   26.8355   -7.3770 C   0  0  0  0  0  0  0  0  0  0  0  0
    2.6916   26.8216   -5.9055 C   0  0  0  0  0  0  0  0  0  0  0  0
    3.6107   27.9675   -5.5499 C   0  0  0  0  0  0  0  0  0  0  0  0
    2.9541   28.8649   -4.6688 O   0  0  0  0  0  0  0  0  0  0  0  0
    2.9011   30.2526   -4.8868 C   0  0  0  0  0  0  0  0  0  0  0  0
    3.2709   31.0976   -3.8668 C   0  0  0  0  0  0  0  0  0  0  0  0
    3.2541   32.4914   -3.9931 C   0  0  0  0  0  0  0  0  0  0  0  0
    2.8443   32.9930   -5.2035 C   0  0  0  0  0  0  0  0  0  0  0  0
    2.4710   32.1399   -6.2308 C   0  0  0  0  0  0  0  0  0  0  0  0
    2.4857   30.7644   -6.1088 C   0  0  0  0  0  0  0  0  0  0  0  0
    2.0670   29.9552   -7.2040 N   0  0  0  0  0  0  0  0  0  0  0  0
  1  2  1  0
  2  3  1  0
  3  4  2  0
  4  5  1  0
  5  6  1  0
  6  7  1  0
  7  8  1  0
  8  9  2  0
  9 10  1  0
 10 11  2  0
 11 12  1  0
 12 13  2  0
 13 14  1  0
 14  2  1  0
 13  8  1  0
M  END
$$$$
