
     RDKit          3D

 27 29  0  0  0  0  0  0  0  0999 V2000
    2.6150   -4.1116  -54.6322 C   0  0  0  0  0  0  0  0  0  0  0  0
    1.6375   -4.3804  -55.7169 C   0  0  0  0  0  0  0  0  0  0  0  0
    1.6367   -3.6098  -56.8646 C   0  0  0  0  0  0  0  0  0  0  0  0
    0.7420   -3.8378  -57.8899 C   0  0  0  0  0  0  0  0  0  0  0  0
   -0.1976   -4.8500  -57.8175 C   0  0  0  0  0  0  0  0  0  0  0  0
   -1.1599   -5.0985  -58.9270 C   0  0  0  0  0  0  0  0  0  0  0  0
   -1.1391   -4.3326  -60.0671 C   0  0  0  0  0  0  0  0  0  0  0  0
   -2.4251   -5.0203  -60.9662 S   0  0  0  0  0  0  0  0  0  0  0  0
   -2.8953   -6.2181  -59.8484 C   0  0  0  0  0  0  0  0  0  0  0  0
   -3.9614   -7.1787  -59.9759 N   0  0  0  0  0  0  0  0  0  0  0  0
   -4.7409   -7.1908  -61.1645 C   0  0  0  0  0  0  0  0  0  0  0  0
   -4.5117   -6.2823  -62.0085 O   0  0  0  0  0  0  0  0  0  0  0  0
   -5.7773   -8.2282  -61.3971 C   0  0  0  0  0  0  0  0  0  0  0  0
   -4.9654   -9.8160  -61.3148 S   0  0  0  0  0  6  0  0  0  0  0  0
   -5.7835  -10.8377  -62.0620 O   0  0  0  0  0  0  0  0  0  0  0  0
   -4.8256  -10.3031  -59.9065 O   0  0  0  0  0  0  0  0  0  0  0  0
   -3.3683   -9.6730  -62.0045 C   0  0  0  0  0  0  0  0  0  0  0  0
   -2.2717   -9.5262  -61.1838 C   0  0  0  0  0  0  0  0  0  0  0  0
   -0.9999   -9.3934  -61.6930 C   0  0  0  0  0  0  0  0  0  0  0  0
   -0.8133   -9.4070  -63.0566 C   0  0  0  0  0  0  0  0  0  0  0  0
    0.4234   -9.2763  -63.5864 F   0  0  0  0  0  0  0  0  0  0  0  0
   -1.9229   -9.5562  -63.8941 C   0  0  0  0  0  0  0  0  0  0  0  0
   -3.1963   -9.6889  -63.3695 C   0  0  0  0  0  0  0  0  0  0  0  0
   -2.0553   -6.0351  -58.8540 N   0  0  0  0  0  0  0  0  0  0  0  0
   -0.2029   -5.6180  -56.6823 C   0  0  0  0  0  0  0  0  0  0  0  0
    0.7034   -5.3869  -55.6431 C   0  0  0  0  0  0  0  0  0  0  0  0
    0.6588   -6.2368  -54.4436 C   0  0  0  0  0  0  0  0  0  0  0  0
  1  2  1  0
  2  3  2  0
  3  4  1  0
  4  5  2  0
  5  6  1  0
  6  7  2  0
  7  8  1  0
  8  9  1  0
  9 10  1  0
 10 11  1  0
 11 12  2  0
 11 13  1  0
 13 14  1  0
 14 15  2  0
 14 16  2  0
 14 17  1  0
 17 18  2  0
 18 19  1  0
 19 20  2  0
 20 21  1  0
 20 22  1  0
 22 23  2  0
  9 24  2  0
  5 25  1  0
 25 26  2  0
 26 27  1  0
 26  2  1  0
 24  6  1  0
 23 17  1  0
M  END
$$$$
