
     RDKit          3D

 27 29  0  0  0  0  0  0  0  0999 V2000
  118.1803  152.6160  139.8157 C   0  0  0  0  0  0  0  0  0  0  0  0
  118.5700  151.2896  140.1055 O   0  0  0  0  0  0  0  0  0  0  0  0
  118.1899  150.7198  141.3133 C   0  0  0  0  0  0  0  0  0  0  0  0
  117.2941  151.2917  142.1909 C   0  0  0  0  0  0  0  0  0  0  0  0
  116.9693  150.6497  143.3800 C   0  0  0  0  0  0  0  0  0  0  0  0
  117.4992  149.4402  143.7545 C   0  0  0  0  0  0  0  0  0  0  0  0
  117.1071  148.6209  145.2404 S   0  0  0  0  0  6  0  0  0  0  0  0
  118.2253  147.7886  145.7529 O   0  0  0  0  0  0  0  0  0  0  0  0
  116.8465  149.6779  146.3032 O   0  0  0  0  0  0  0  0  0  0  0  0
  115.6498  147.6281  145.1139 C   0  0  0  0  0  0  0  0  0  0  0  0
  115.3234  147.4507  143.6752 C   0  0  0  0  0  0  0  0  0  0  0  0
  116.0829  147.9200  142.7589 O   0  0  0  0  0  0  0  0  0  0  0  0
  114.1686  146.7592  143.2069 N   0  0  0  0  0  0  0  0  0  0  0  0
  113.8407  146.7032  141.7994 C   0  0  0  0  0  0  0  0  0  0  0  0
  114.6356  146.8173  140.7562 N   0  0  0  0  0  0  0  0  0  0  0  0
  114.1504  146.7303  139.5540 C   0  0  0  0  0  0  0  0  0  0  0  0
  115.0278  146.8688  138.3597 C   0  0  0  0  0  0  0  0  0  0  0  0
  114.5040  146.8495  137.0882 C   0  0  0  0  0  0  0  0  0  0  0  0
  115.2878  146.9696  135.9397 C   0  0  0  0  0  0  0  0  0  0  0  0
  116.6475  147.1136  136.1048 C   0  0  0  0  0  0  0  0  0  0  0  0
  117.5047  147.2424  134.8982 C   0  0  0  0  0  0  0  0  0  0  0  0
  117.1841  147.1359  137.3480 C   0  0  0  0  0  0  0  0  0  0  0  0
  116.3841  147.0139  138.4957 C   0  0  0  0  0  0  0  0  0  0  0  0
  112.7931  146.5170  139.4429 C   0  0  0  0  0  0  0  0  0  0  0  0
  112.3148  146.4586  141.0801 S   0  0  0  0  0  0  0  0  0  0  0  0
  118.4086  148.8538  142.8703 C   0  0  0  0  0  0  0  0  0  0  0  0
  118.7257  149.4951  141.6948 C   0  0  0  0  0  0  0  0  0  0  0  0
  1  2  1  0
  2  3  1  0
  3  4  2  0
  4  5  1  0
  5  6  2  0
  6  7  1  0
  7  8  2  0
  7  9  2  0
  7 10  1  0
 10 11  1  0
 11 12  2  0
 11 13  1  0
 13 14  1  0
 14 15  2  0
 15 16  1  0
 16 17  1  0
 17 18  2  0
 18 19  1  0
 19 20  2  0
 20 21  1  0
 20 22  1  0
 22 23  2  0
 16 24  2  0
 24 25  1  0
  6 26  1  0
 26 27  2  0
 27  3  1  0
 25 14  1  0
 23 17  1  0
M  END
$$$$
