
     RDKit          3D

 38 42  0  0  0  0  0  0  0  0999 V2000
   44.8215   33.9815   26.3014 C   0  0  0  0  0  0  0  0  0  0  0  0
   44.8544   34.5896   25.0286 O   0  0  0  0  0  0  0  0  0  0  0  0
   44.6175   33.8552   23.8788 C   0  0  0  0  0  0  0  0  0  0  0  0
   45.0906   32.5562   23.7270 C   0  0  0  0  0  0  0  0  0  0  0  0
   44.8517   31.8299   22.5817 C   0  0  0  0  0  0  0  0  0  0  0  0
   44.1311   32.4019   21.5666 C   0  0  0  0  0  0  0  0  0  0  0  0
   43.8315   31.7579   20.3475 N   0  0  0  0  0  0  0  0  0  0  0  0
   42.7838   30.8241   20.1444 C   0  0  0  0  0  0  0  0  0  0  0  0
   42.5391   30.2420   18.9958 C   0  0  0  0  0  0  0  0  0  0  0  0
   41.4036   29.2895   18.9589 C   0  0  0  0  0  0  0  0  0  0  0  0
   40.6706   29.2022   17.9553 O   0  0  0  0  0  0  0  0  0  0  0  0
   41.1634   28.4467   20.1358 C   0  0  0  0  0  0  0  0  0  0  0  0
   41.5589   29.0883   21.4251 C   0  0  0  0  0  0  0  0  0  0  0  0
   40.3826   28.9250   22.4036 C   0  0  0  0  0  0  0  0  0  0  0  0
   42.7125   28.2638   22.0203 C   0  0  0  0  0  0  0  0  0  0  0  0
   41.9295   30.5342   21.3459 C   0  0  0  0  0  0  0  0  0  0  0  0
   43.3293   30.5154   17.8100 C   0  0  0  0  0  0  0  0  0  0  0  0
   43.7045   29.3502   17.0293 C   0  0  0  0  0  0  0  0  0  0  0  0
   44.5878   28.4404   17.5346 C   0  0  0  0  0  0  0  0  0  0  0  0
   44.9632   27.3221   16.7762 C   0  0  0  0  0  0  0  0  0  0  0  0
   44.4553   27.1205   15.5211 C   0  0  0  0  0  0  0  0  0  0  0  0
   44.8009   26.0114   14.7203 O   0  0  0  0  0  0  0  0  0  0  0  0
   44.2608   24.7623   15.0861 C   0  0  0  0  0  0  0  0  0  0  0  0
   43.5519   28.0569   15.0105 C   0  0  0  0  0  0  0  0  0  0  0  0
   43.0381   27.8610   13.7470 O   0  0  0  0  0  0  0  0  0  0  0  0
   41.6707   27.7555   13.4676 C   0  0  0  0  0  0  0  0  0  0  0  0
   43.1985   29.1498   15.7793 C   0  0  0  0  0  0  0  0  0  0  0  0
   44.4063   31.4733   18.0259 C   0  0  0  0  0  0  0  0  0  0  0  0
   44.6179   32.0267   19.1836 C   0  0  0  0  0  0  0  0  0  0  0  0
   45.7315   33.0150   19.3566 C   0  0  0  0  0  0  0  0  0  0  0  0
   46.9761   32.6032   18.6099 C   0  0  0  0  0  0  0  0  0  0  0  0
   47.5854   31.4273   19.3423 C   0  0  0  0  0  0  0  0  0  0  0  0
   48.0105   33.7088   18.5974 C   0  0  0  0  0  0  0  0  0  0  0  0
   46.7083   32.2209   17.1886 C   0  0  0  0  0  0  0  0  0  0  0  0
   45.3123   31.8634   16.9148 C   0  0  0  0  0  0  0  0  0  0  0  0
   44.8826   31.8859   15.7423 O   0  0  0  0  0  0  0  0  0  0  0  0
   43.6718   33.6894   21.7370 C   0  0  0  0  0  0  0  0  0  0  0  0
   43.8920   34.4426   22.8680 C   0  0  0  0  0  0  0  0  0  0  0  0
  1  2  1  0
  2  3  1  0
  3  4  2  0
  4  5  1  0
  5  6  2  0
  6  7  1  0
  7  8  1  0
  8  9  2  0
  9 10  1  0
 10 11  2  0
 10 12  1  0
 12 13  1  0
 13 14  1  0
 13 15  1  0
 13 16  1  0
  9 17  1  0
 17 18  1  0
 18 19  2  0
 19 20  1  0
 20 21  2  0
 21 22  1  0
 22 23  1  0
 21 24  1  0
 24 25  1  0
 25 26  1  0
 24 27  2  0
 17 28  1  0
 28 29  2  0
 29 30  1  0
 30 31  1  0
 31 32  1  0
 31 33  1  0
 31 34  1  0
 34 35  1  0
 35 36  2  0
  6 37  1  0
 37 38  2  0
 38  3  1  0
 29  7  1  0
 16  8  1  0
 27 18  1  0
 35 28  1  0
M  END
$$$$
