
     RDKit          3D

 22 24  0  0  0  0  0  0  0  0999 V2000
   11.6224    7.8479    2.9182 O   0  0  0  0  0  0  0  0  0  0  0  0
   10.9208    7.1382    3.8611 C   0  0  0  0  0  0  0  0  0  0  0  0
   11.2021    5.6771    3.9373 C   0  0  0  0  0  0  0  0  0  0  0  0
   12.0057    5.2277    5.0181 N   0  0  0  0  0  0  0  0  0  0  0  0
   13.3287    4.8829    4.6559 C   0  0  0  0  0  0  0  0  0  0  0  0
   14.4113    5.3612    5.4914 C   0  0  0  0  0  0  0  0  0  0  0  0
   14.7575    6.7222    5.8643 N   0  0  0  0  0  0  0  0  0  0  0  0
   15.4441    7.0137    7.0597 C   0  0  0  0  0  0  0  0  0  0  0  0
   15.4466    8.2246    7.5225 C   0  0  0  0  0  0  0  0  0  0  0  0
   15.8794    8.5421    8.6332 N   0  0  0  0  0  4  0  0  0  0  0  0
   16.2819    7.7490    9.4795 C   0  0  0  0  0  0  0  0  0  0  0  0
   16.4521    8.2778   11.1358 Cl  0  0  0  0  0  0  0  0  0  0  0  0
   16.6000    6.3893    9.0577 C   0  0  0  0  0  0  0  0  0  0  0  0
   17.4804    5.3204   10.0974 Cl  0  0  0  0  0  0  0  0  0  0  0  0
   16.1769    6.0281    7.8437 C   0  0  0  0  0  0  0  0  0  0  0  0
   15.1096    4.3586    5.8908 N   0  0  0  0  0  0  0  0  0  0  0  0
   14.6102    3.1217    5.3925 C   0  0  0  0  0  0  0  0  0  0  0  0
   15.0527    1.8091    5.5700 C   0  0  0  0  0  0  0  0  0  0  0  0
   14.3687    0.8044    4.9582 C   0  0  0  0  0  0  0  0  0  0  0  0
   13.2537    1.0651    4.1720 C   0  0  0  0  0  0  0  0  0  0  0  0
   12.8303    2.3677    4.0074 C   0  0  0  0  0  0  0  0  0  0  0  0
   13.5186    3.3969    4.6252 C   0  0  0  0  0  0  0  0  0  0  0  0
  1  2  1  0
  2  3  1  0
  3  4  1  0
  4  5  1  0
  5  6  1  0
  6  7  1  0
  7  8  1  0
  8  9  2  0
  9 10  2  0
 10 11  2  0
 11 12  1  0
 11 13  1  0
 13 14  1  0
 13 15  2  0
  6 16  2  0
 16 17  1  0
 17 18  2  0
 18 19  1  0
 19 20  2  0
 20 21  1  0
 21 22  2  0
 22  5  1  0
 15  8  1  0
 22 17  1  0
M  CHG  1  10   1
M  END
$$$$
