
     RDKit          3D

 31 33  0  0  0  0  0  0  0  0999 V2000
    6.4616   28.0482  -11.9723 C   0  0  0  0  0  0  0  0  0  0  0  0
    6.2190   27.4313  -10.7352 C   0  0  0  0  0  0  0  0  0  0  0  0
    5.9753   26.8505   -9.5844 C   0  0  0  0  0  0  0  0  0  0  0  0
    5.7073   26.1996   -8.3495 C   0  0  0  0  0  0  0  0  0  0  0  0
    4.2494   25.1404   -8.4963 S   0  0  0  0  0  6  0  0  0  0  0  0
    4.1533   24.3655   -7.2308 O   0  0  0  0  0  0  0  0  0  0  0  0
    4.4086   24.2301   -9.6296 O   0  0  0  0  0  0  0  0  0  0  0  0
    2.8375   26.1703   -8.6140 C   0  0  0  0  0  0  0  0  0  0  0  0
    1.8207   25.8945   -9.4599 C   0  0  0  0  0  0  0  0  0  0  0  0
    0.7013   26.6938   -9.4321 C   0  0  0  0  0  0  0  0  0  0  0  0
    0.6659   27.7618   -8.5286 C   0  0  0  0  0  0  0  0  0  0  0  0
    1.6619   28.0526   -7.6823 C   0  0  0  0  0  0  0  0  0  0  0  0
    1.6137   29.0758   -6.6185 C   0  0  0  0  0  0  0  0  0  0  0  0
    0.8367   30.0589   -6.6949 O   0  0  0  0  0  0  0  0  0  0  0  0
    2.4334   28.9553   -5.4828 N   0  0  0  0  0  0  0  0  0  0  0  0
    2.9993   30.0392   -4.7485 C   0  0  0  0  0  0  0  0  0  0  0  0
    3.9439   30.1980   -3.8508 N   0  0  0  0  0  0  0  0  0  0  0  0
    4.1499   31.3338   -3.2798 C   0  0  0  0  0  0  0  0  0  0  0  0
    5.1224   31.5785   -2.1821 C   0  0  0  0  0  0  0  0  0  0  0  0
    4.7690   32.1924   -1.0177 C   0  0  0  0  0  0  0  0  0  0  0  0
    5.5946   32.3040    0.0903 C   0  0  0  0  0  0  0  0  0  0  0  0
    6.8907   31.7505    0.0234 C   0  0  0  0  0  0  0  0  0  0  0  0
    7.7151   31.8509    1.1372 O   0  0  0  0  0  0  0  0  0  0  0  0
    7.6920   33.0277    1.9184 C   0  0  0  0  0  0  0  0  0  0  0  0
    8.7391   33.0158    2.9904 C   0  0  0  0  0  0  0  0  0  0  0  0
    7.2389   31.1461   -1.1439 C   0  0  0  0  0  0  0  0  0  0  0  0
    6.3961   31.0368   -2.2645 C   0  0  0  0  0  0  0  0  0  0  0  0
    3.3295   32.3955   -3.6584 C   0  0  0  0  0  0  0  0  0  0  0  0
    3.2870   33.7998   -3.1244 C   0  0  0  0  0  0  0  0  0  0  0  0
    2.3333   31.6659   -4.8022 S   0  0  0  0  0  0  0  0  0  0  0  0
    2.8101   27.2437   -7.7008 C   0  0  0  0  0  0  0  0  0  0  0  0
  1  2  1  0
  2  3  3  0
  3  4  1  0
  4  5  1  0
  5  6  2  0
  5  7  2  0
  5  8  1  0
  8  9  2  0
  9 10  1  0
 10 11  2  0
 11 12  1  0
 12 13  1  0
 13 14  2  0
 13 15  1  0
 15 16  1  0
 16 17  2  0
 17 18  1  0
 18 19  1  0
 19 20  2  0
 20 21  1  0
 21 22  2  0
 22 23  1  0
 23 24  1  0
 24 25  1  0
 22 26  1  0
 26 27  2  0
 18 28  2  0
 28 29  1  0
 28 30  1  0
 12 31  2  0
 31  8  1  0
 30 16  1  0
 27 19  1  0
M  END
$$$$
