
     RDKit          3D

 31 33  0  0  0  0  0  0  0  0999 V2000
  -11.8437   -1.3876  -58.0530 C   0  0  0  0  0  0  0  0  0  0  0  0
  -11.5964   -2.7654  -58.1559 C   0  0  0  0  0  0  0  0  0  0  0  0
  -11.3816   -4.0565  -58.2445 C   0  0  0  0  0  0  0  0  0  0  0  0
  -11.1401   -5.4554  -58.3172 C   0  0  0  0  0  0  0  0  0  0  0  0
  -10.6959   -6.1058  -56.6898 S   0  0  0  0  0  6  0  0  0  0  0  0
  -10.5403   -7.5766  -56.8438 O   0  0  0  0  0  0  0  0  0  0  0  0
  -11.7598   -5.8129  -55.7302 O   0  0  0  0  0  0  0  0  0  0  0  0
   -9.1405   -5.4365  -56.2417 C   0  0  0  0  0  0  0  0  0  0  0  0
   -8.9216   -4.8899  -55.0257 C   0  0  0  0  0  0  0  0  0  0  0  0
   -7.6508   -4.4694  -54.7081 C   0  0  0  0  0  0  0  0  0  0  0  0
   -6.6386   -4.6242  -55.6619 C   0  0  0  0  0  0  0  0  0  0  0  0
   -6.8337   -5.1629  -56.8720 C   0  0  0  0  0  0  0  0  0  0  0  0
   -5.7756   -5.4758  -57.8536 C   0  0  0  0  0  0  0  0  0  0  0  0
   -4.5975   -5.0733  -57.6921 O   0  0  0  0  0  0  0  0  0  0  0  0
   -6.0698   -6.2520  -58.9882 N   0  0  0  0  0  0  0  0  0  0  0  0
   -5.1190   -6.7225  -59.9415 C   0  0  0  0  0  0  0  0  0  0  0  0
   -5.0611   -7.6690  -60.8493 N   0  0  0  0  0  0  0  0  0  0  0  0
   -3.9778   -7.9159  -61.5005 C   0  0  0  0  0  0  0  0  0  0  0  0
   -3.7922   -9.0313  -62.4659 C   0  0  0  0  0  0  0  0  0  0  0  0
   -2.6304   -9.2145  -63.1545 C   0  0  0  0  0  0  0  0  0  0  0  0
   -2.3541  -10.3203  -63.9436 C   0  0  0  0  0  0  0  0  0  0  0  0
   -3.3314  -11.3323  -64.0515 C   0  0  0  0  0  0  0  0  0  0  0  0
   -3.0513  -12.4468  -64.8322 O   0  0  0  0  0  0  0  0  0  0  0  0
   -4.0667  -13.3966  -65.0821 C   0  0  0  0  0  0  0  0  0  0  0  0
   -4.6062  -13.2945  -66.4764 C   0  0  0  0  0  0  0  0  0  0  0  0
   -4.4907  -11.1392  -63.3677 C   0  0  0  0  0  0  0  0  0  0  0  0
   -4.7646  -10.0144  -62.5691 C   0  0  0  0  0  0  0  0  0  0  0  0
   -2.8642   -7.1306  -61.2059 C   0  0  0  0  0  0  0  0  0  0  0  0
   -1.4643   -7.2284  -61.7443 C   0  0  0  0  0  0  0  0  0  0  0  0
   -3.4735   -6.1066  -60.0173 S   0  0  0  0  0  0  0  0  0  0  0  0
   -8.1269   -5.5963  -57.2081 C   0  0  0  0  0  0  0  0  0  0  0  0
  1  2  1  0
  2  3  3  0
  3  4  1  0
  4  5  1  0
  5  6  2  0
  5  7  2  0
  5  8  1  0
  8  9  2  0
  9 10  1  0
 10 11  2  0
 11 12  1  0
 12 13  1  0
 13 14  2  0
 13 15  1  0
 15 16  1  0
 16 17  2  0
 17 18  1  0
 18 19  1  0
 19 20  2  0
 20 21  1  0
 21 22  2  0
 22 23  1  0
 23 24  1  0
 24 25  1  0
 22 26  1  0
 26 27  2  0
 18 28  2  0
 28 29  1  0
 28 30  1  0
 12 31  2  0
 31  8  1  0
 30 16  1  0
 27 19  1  0
M  END
$$$$
