
     RDKit          3D

 26 26  0  0  0  0  0  0  0  0999 V2000
    0.5606   28.3356   -8.3977 C   0  0  0  0  0  0  0  0  0  0  0  0
    1.7028   28.3474   -7.4143 C   0  0  0  0  0  0  0  0  0  0  0  0
    2.3805   27.0797   -7.2243 C   0  0  0  0  0  0  0  0  0  0  0  0
    2.2947   26.0914   -8.1178 C   0  0  0  0  0  0  0  0  0  0  0  0
    1.1212   25.8848   -8.8577 N   0  0  0  0  0  0  0  0  0  0  0  0
    0.9424   24.9286   -9.6841 C   0  0  0  0  0  0  0  0  0  0  0  0
    0.4942   24.1702  -10.5927 N   0  0  0  0  0  0  0  0  0  0  0  0
    2.0420   29.4427   -6.7819 C   0  0  0  0  0  0  0  0  0  0  0  0
    1.3524   30.7134   -6.8810 C   0  0  0  0  0  0  0  0  0  0  0  0
    1.8363   31.7753   -6.2513 C   0  0  0  0  0  0  0  0  0  0  0  0
    3.2270   32.0306   -6.3522 N   0  0  0  0  0  0  0  0  0  0  0  0
    4.1410   31.8415   -5.2619 C   0  0  0  0  0  0  0  0  0  0  0  0
    5.5613   32.2332   -5.4503 C   0  0  0  0  0  0  0  0  0  0  0  0
    5.8421   32.9438   -7.0459 Cl  0  0  0  0  0  0  0  0  0  0  0  0
    3.6386   31.3508   -4.1967 N   0  0  0  0  0  0  0  0  0  0  0  0
    4.2067   31.4172   -2.8974 C   0  0  0  0  0  0  0  0  0  0  0  0
    3.4546   32.0459   -1.9061 C   0  0  0  0  0  0  0  0  0  0  0  0
    3.9448   32.1475   -0.6244 C   0  0  0  0  0  0  0  0  0  0  0  0
    5.1765   31.6230   -0.3449 C   0  0  0  0  0  0  0  0  0  0  0  0
    5.9185   31.0011   -1.3289 C   0  0  0  0  0  0  0  0  0  0  0  0
    5.4491   30.8838   -2.6300 C   0  0  0  0  0  0  0  0  0  0  0  0
    6.2708   30.2070   -3.6491 C   0  0  0  0  0  0  0  0  0  0  0  0
    7.4072   29.4976   -3.1456 N   0  0  0  0  0  0  0  0  0  0  0  0
    8.2171   28.8577   -4.1528 C   0  0  0  0  0  0  0  0  0  0  0  0
    9.4458   28.2439   -3.4666 C   0  0  0  0  0  0  0  0  0  0  0  0
   10.4939   29.1403   -3.6505 O   0  0  0  0  0  0  0  0  0  0  0  0
  1  2  1  0
  2  3  1  0
  3  4  2  3
  4  5  1  0
  5  6  2  0
  6  7  2  0
  2  8  2  3
  8  9  1  0
  9 10  2  3
 10 11  1  0
 11 12  1  0
 12 13  1  0
 13 14  1  0
 12 15  2  3
 15 16  1  0
 16 17  2  0
 17 18  1  0
 18 19  2  0
 19 20  1  0
 20 21  2  0
 21 22  1  0
 22 23  1  0
 23 24  1  0
 24 25  1  0
 25 26  1  0
 21 16  1  0
M  END
$$$$
