
     RDKit          3D

 26 26  0  0  0  0  0  0  0  0999 V2000
  -14.2892   -7.7632    0.7622 C   0  0  0  0  0  0  0  0  0  0  0  0
  -15.1672   -8.0498   -0.4289 C   0  0  0  0  0  0  0  0  0  0  0  0
  -16.5655   -7.6973   -0.2771 C   0  0  0  0  0  0  0  0  0  0  0  0
  -17.4404   -8.5147    0.3135 C   0  0  0  0  0  0  0  0  0  0  0  0
  -18.8037   -8.1914    0.3770 N   0  0  0  0  0  0  0  0  0  0  0  0
  -19.7140   -8.9661    0.8248 C   0  0  0  0  0  0  0  0  0  0  0  0
  -20.7515   -9.6784    0.9590 N   0  0  0  0  0  0  0  0  0  0  0  0
  -14.6778   -8.5853   -1.5190 C   0  0  0  0  0  0  0  0  0  0  0  0
  -13.2677   -8.7516   -1.8091 C   0  0  0  0  0  0  0  0  0  0  0  0
  -12.8931   -9.3480   -2.9325 C   0  0  0  0  0  0  0  0  0  0  0  0
  -13.0825  -10.7490   -3.0357 N   0  0  0  0  0  0  0  0  0  0  0  0
  -12.9874  -11.4648   -4.2761 C   0  0  0  0  0  0  0  0  0  0  0  0
  -12.0396  -10.9730   -5.3085 C   0  0  0  0  0  0  0  0  0  0  0  0
  -10.3765  -11.4687   -4.9649 Cl  0  0  0  0  0  0  0  0  0  0  0  0
  -13.7368  -12.4920   -4.3816 N   0  0  0  0  0  0  0  0  0  0  0  0
  -14.9266  -12.7371   -3.6469 C   0  0  0  0  0  0  0  0  0  0  0  0
  -14.8637  -13.6955   -2.6365 C   0  0  0  0  0  0  0  0  0  0  0  0
  -15.9800  -13.9848   -1.8856 C   0  0  0  0  0  0  0  0  0  0  0  0
  -17.1443  -13.3177   -2.1493 C   0  0  0  0  0  0  0  0  0  0  0  0
  -17.2029  -12.3693   -3.1506 C   0  0  0  0  0  0  0  0  0  0  0  0
  -16.0929  -12.0569   -3.9234 C   0  0  0  0  0  0  0  0  0  0  0  0
  -16.1971  -11.0335   -4.9786 C   0  0  0  0  0  0  0  0  0  0  0  0
  -16.4405  -11.5365   -6.2962 N   0  0  0  0  0  0  0  0  0  0  0  0
  -16.5337  -10.5275   -7.3224 C   0  0  0  0  0  0  0  0  0  0  0  0
  -16.7589  -11.2282   -8.6698 C   0  0  0  0  0  0  0  0  0  0  0  0
  -15.6674  -12.0674   -8.8696 O   0  0  0  0  0  0  0  0  0  0  0  0
  1  2  1  0
  2  3  1  0
  3  4  2  3
  4  5  1  0
  5  6  2  0
  6  7  2  0
  2  8  2  3
  8  9  1  0
  9 10  2  3
 10 11  1  0
 11 12  1  0
 12 13  1  0
 13 14  1  0
 12 15  2  3
 15 16  1  0
 16 17  2  0
 17 18  1  0
 18 19  2  0
 19 20  1  0
 20 21  2  0
 21 22  1  0
 22 23  1  0
 23 24  1  0
 24 25  1  0
 25 26  1  0
 21 16  1  0
M  END
$$$$
