
     RDKit          3D

 22 24  0  0  0  0  0  0  0  0999 V2000
    5.6810   31.6421   -1.9603 Cl  0  0  0  0  0  0  0  0  0  0  0  0
    4.4619   30.7910   -2.9636 C   0  0  0  0  0  0  0  0  0  0  0  0
    3.4054   31.4661   -3.3509 C   0  0  0  0  0  0  0  0  0  0  0  0
    2.2772   30.9905   -4.1725 C   0  0  0  0  0  0  0  0  0  0  0  0
    0.7951   31.4088   -3.2251 Cl  0  0  0  0  0  0  0  0  0  0  0  0
    2.3135   31.7261   -5.5689 B   0  0  0  0  0  0  0  0  0  0  0  0
    1.2208   31.7544   -6.6539 C   0  0  0  0  0  0  0  0  0  0  0  0
    0.7978   30.7801   -7.4179 C   0  0  0  0  0  0  0  0  0  0  0  0
    1.2066   29.4016   -7.4936 C   0  0  0  0  0  0  0  0  0  0  0  0
    2.2232   28.9276   -6.7807 N   0  0  0  0  0  0  0  0  0  0  0  0
    2.6782   27.6761   -6.8046 C   0  0  0  0  0  0  0  0  0  0  0  0
    2.0152   26.7863   -7.6650 C   0  0  0  0  0  0  0  0  0  0  0  0
    2.4589   25.4842   -7.7203 C   0  0  0  0  0  0  0  0  0  0  0  0
    1.8037   24.6176   -8.5708 C   0  0  0  0  0  0  0  0  0  0  0  0
    0.7357   25.0574   -9.3382 C   0  0  0  0  0  0  0  0  0  0  0  0
    0.3128   26.3626   -9.2641 C   0  0  0  0  0  0  0  0  0  0  0  0
    0.9576   27.2533   -8.4146 C   0  0  0  0  0  0  0  0  0  0  0  0
    0.5631   28.5301   -8.3304 N   0  0  0  0  0  0  0  0  0  0  0  0
    3.7741   27.2249   -6.0265 N   0  0  0  0  0  0  0  0  0  0  0  0
    3.9853   27.5719   -4.6416 C   0  0  0  0  0  0  0  0  0  0  0  0
    4.6993   28.8998   -4.5793 C   0  0  0  0  0  0  0  0  0  0  0  0
    4.6533   29.4710   -3.3010 O   0  0  0  0  0  0  0  0  0  0  0  0
  1  2  1  0
  2  3  2  0
  3  4  1  0
  4  5  1  0
  4  6  1  0
  6  7  1  0
  7  8  2  0
  8  9  1  0
  9 10  2  0
 10 11  1  0
 11 12  2  0
 12 13  1  0
 13 14  2  0
 14 15  1  0
 15 16  2  0
 16 17  1  0
 17 18  2  0
 11 19  1  0
 19 20  1  0
 20 21  1  0
 21 22  1  0
 22  2  1  0
 18  9  1  0
 17 12  1  0
M  END
$$$$
