
     RDKit          3D

 22 24  0  0  0  0  0  0  0  0999 V2000
    0.6045   -8.6984  -63.0323 Cl  0  0  0  0  0  0  0  0  0  0  0  0
   -0.5074   -7.9662  -61.8303 C   0  0  0  0  0  0  0  0  0  0  0  0
   -0.0557   -6.9738  -61.1001 C   0  0  0  0  0  0  0  0  0  0  0  0
   -0.7720   -6.2175  -60.0566 C   0  0  0  0  0  0  0  0  0  0  0  0
    0.3040   -6.2827  -58.6050 Cl  0  0  0  0  0  0  0  0  0  0  0  0
   -0.9980   -4.7381  -60.5590 B   0  0  0  0  0  0  0  0  0  0  0  0
   -1.4672   -3.5205  -59.7408 C   0  0  0  0  0  0  0  0  0  0  0  0
   -2.6404   -3.2927  -59.2083 C   0  0  0  0  0  0  0  0  0  0  0  0
   -3.8439   -4.0829  -59.2156 C   0  0  0  0  0  0  0  0  0  0  0  0
   -3.9396   -5.2153  -59.9049 N   0  0  0  0  0  0  0  0  0  0  0  0
   -5.0169   -5.9946  -59.9822 C   0  0  0  0  0  0  0  0  0  0  0  0
   -6.1477   -5.5706  -59.2659 C   0  0  0  0  0  0  0  0  0  0  0  0
   -7.2824   -6.3481  -59.3239 C   0  0  0  0  0  0  0  0  0  0  0  0
   -8.3898   -5.9223  -58.6197 C   0  0  0  0  0  0  0  0  0  0  0  0
   -8.3468   -4.7485  -57.8825 C   0  0  0  0  0  0  0  0  0  0  0  0
   -7.2013   -3.9909  -57.8414 C   0  0  0  0  0  0  0  0  0  0  0  0
   -6.0738   -4.4000  -58.5428 C   0  0  0  0  0  0  0  0  0  0  0  0
   -4.9488   -3.6742  -58.5185 N   0  0  0  0  0  0  0  0  0  0  0  0
   -5.0664   -7.1915  -60.7404 N   0  0  0  0  0  0  0  0  0  0  0  0
   -4.0089   -8.1729  -60.7801 C   0  0  0  0  0  0  0  0  0  0  0  0
   -2.9969   -7.7516  -61.8171 C   0  0  0  0  0  0  0  0  0  0  0  0
   -1.7885   -8.4502  -61.6984 O   0  0  0  0  0  0  0  0  0  0  0  0
  1  2  1  0
  2  3  2  0
  3  4  1  0
  4  5  1  0
  4  6  1  0
  6  7  1  0
  7  8  2  0
  8  9  1  0
  9 10  2  0
 10 11  1  0
 11 12  2  0
 12 13  1  0
 13 14  2  0
 14 15  1  0
 15 16  2  0
 16 17  1  0
 17 18  2  0
 11 19  1  0
 19 20  1  0
 20 21  1  0
 21 22  1  0
 22  2  1  0
 18  9  1  0
 17 12  1  0
M  END
$$$$
