
     RDKit          3D

 28 31  0  0  0  0  0  0  0  0999 V2000
   12.5445   30.1654    2.2371 C   0  0  0  0  0  0  0  0  0  0  0  0
   11.3585   30.0381    1.4941 O   0  0  0  0  0  0  0  0  0  0  0  0
   10.1047   30.3825    1.9808 C   0  0  0  0  0  0  0  0  0  0  0  0
    9.9929   30.4505    3.2282 O   0  0  0  0  0  0  0  0  0  0  0  0
    8.9791   30.6503    1.0821 C   0  0  0  0  0  0  0  0  0  0  0  0
    7.7471   31.0455    1.5522 C   0  0  0  0  0  0  0  0  0  0  0  0
    6.6697   31.3034    0.7140 C   0  0  0  0  0  0  0  0  0  0  0  0
    6.8045   31.1696   -0.6284 C   0  0  0  0  0  0  0  0  0  0  0  0
    5.6899   31.4353   -1.5124 C   0  0  0  0  0  0  0  0  0  0  0  0
    4.5541   31.6008   -1.0121 O   0  0  0  0  0  0  0  0  0  0  0  0
    5.8489   31.5111   -2.9025 N   0  0  0  0  0  0  0  0  0  0  0  0
    5.0372   30.6794   -3.7813 C   0  0  0  0  0  0  0  0  0  0  0  0
    3.7990   31.1475   -4.1226 C   0  0  0  0  0  0  0  0  0  0  0  0
    3.0003   30.3874   -4.9538 C   0  0  0  0  0  0  0  0  0  0  0  0
    3.4613   29.1600   -5.4327 C   0  0  0  0  0  0  0  0  0  0  0  0
    2.6266   28.3508   -6.3099 C   0  0  0  0  0  0  0  0  0  0  0  0
    2.7526   27.0057   -6.4504 N   0  0  0  0  0  0  0  0  0  0  0  0
    1.8269   26.5903   -7.3336 C   0  0  0  0  0  0  0  0  0  0  0  0
    1.5068   25.3577   -7.8415 C   0  0  0  0  0  0  0  0  0  0  0  0
    0.4865   25.2278   -8.7540 C   0  0  0  0  0  0  0  0  0  0  0  0
   -0.2224   26.3368   -9.1651 C   0  0  0  0  0  0  0  0  0  0  0  0
    0.1201   27.5732   -8.6369 C   0  0  0  0  0  0  0  0  0  0  0  0
    1.1407   27.6991   -7.7249 C   0  0  0  0  0  0  0  0  0  0  0  0
    1.6291   28.7847   -7.0978 N   0  0  0  0  0  0  0  0  0  0  0  0
    4.7082   28.7058   -5.0791 C   0  0  0  0  0  0  0  0  0  0  0  0
    5.5020   29.4757   -4.2447 C   0  0  0  0  0  0  0  0  0  0  0  0
    8.0384   30.7716   -1.1313 C   0  0  0  0  0  0  0  0  0  0  0  0
    9.0880   30.5224   -0.2858 C   0  0  0  0  0  0  0  0  0  0  0  0
  1  2  1  0
  2  3  1  0
  3  4  2  0
  3  5  1  0
  5  6  2  0
  6  7  1  0
  7  8  2  0
  8  9  1  0
  9 10  2  0
  9 11  1  0
 11 12  1  0
 12 13  2  0
 13 14  1  0
 14 15  2  0
 15 16  1  0
 16 17  2  0
 17 18  1  0
 18 19  2  0
 19 20  1  0
 20 21  2  0
 21 22  1  0
 22 23  2  0
 23 24  1  0
 15 25  1  0
 25 26  2  0
  8 27  1  0
 27 28  2  0
 28  5  1  0
 26 12  1  0
 24 16  1  0
 23 18  1  0
M  END
$$$$
