
     RDKit          3D

 21 23  0  0  0  0  0  0  0  0999 V2000
    3.1505   31.9471   -1.1358 C   0  0  0  0  0  0  0  0  0  0  0  0
    3.0930   31.9844   -2.6178 C   0  0  0  0  0  0  0  0  0  0  0  0
    2.9994   30.8310   -3.3463 C   0  0  0  0  0  0  0  0  0  0  0  0
    2.9421   30.7996   -4.7228 C   0  0  0  0  0  0  0  0  0  0  0  0
    2.8418   29.5222   -5.4819 C   0  0  0  0  0  0  0  0  0  0  0  0
    3.7696   28.5245   -5.2937 C   0  0  0  0  0  0  0  0  0  0  0  0
    3.1993   27.3294   -6.3729 S   0  0  0  0  0  0  0  0  0  0  0  0
    1.8405   28.1610   -6.9839 C   0  0  0  0  0  0  0  0  0  0  0  0
    0.8568   27.7539   -7.9565 N   0  0  0  0  0  0  0  0  0  0  0  0
    0.9163   26.5263   -8.6380 C   0  0  0  0  0  0  0  0  0  0  0  0
    0.0124   26.2909   -9.6887 C   0  0  0  0  0  0  0  0  0  0  0  0
   -0.0033   25.1335  -10.4208 C   0  0  0  0  0  0  0  0  0  0  0  0
    0.8882   24.1207  -10.1554 C   0  0  0  0  0  0  0  0  0  0  0  0
    0.9104   22.9311  -10.8692 O   0  0  0  0  0  0  0  0  0  0  0  0
    1.7820   24.3317   -9.1305 C   0  0  0  0  0  0  0  0  0  0  0  0
    1.8054   25.5110   -8.3772 C   0  0  0  0  0  0  0  0  0  0  0  0
    1.8941   29.3097   -6.3305 N   0  0  0  0  0  0  0  0  0  0  0  0
    2.9829   32.0045   -5.3736 C   0  0  0  0  0  0  0  0  0  0  0  0
    3.0790   33.1982   -4.6399 C   0  0  0  0  0  0  0  0  0  0  0  0
    3.1331   33.1848   -3.2816 C   0  0  0  0  0  0  0  0  0  0  0  0
    3.2268   34.3159   -2.5254 F   0  0  0  0  0  0  0  0  0  0  0  0
  1  2  1  0
  2  3  2  0
  3  4  1  0
  4  5  1  0
  5  6  2  0
  6  7  1  0
  7  8  1  0
  8  9  1  0
  9 10  1  0
 10 11  2  0
 11 12  1  0
 12 13  2  0
 13 14  1  0
 13 15  1  0
 15 16  2  0
  8 17  2  0
  4 18  2  0
 18 19  1  0
 19 20  2  0
 20 21  1  0
 20  2  1  0
 17  5  1  0
 16 10  1  0
M  END
$$$$
