
     RDKit          3D

 21 23  0  0  0  0  0  0  0  0999 V2000
    5.2378   29.9839   -0.3425 C   0  0  0  0  0  0  0  0  0  0  0  0
    4.4848   30.8346   -1.2964 C   0  0  0  0  0  0  0  0  0  0  0  0
    3.9696   30.3104   -2.4496 C   0  0  0  0  0  0  0  0  0  0  0  0
    3.2617   31.0474   -3.3740 C   0  0  0  0  0  0  0  0  0  0  0  0
    2.7168   30.4407   -4.6203 C   0  0  0  0  0  0  0  0  0  0  0  0
    2.1557   31.2335   -5.5942 C   0  0  0  0  0  0  0  0  0  0  0  0
    1.7109   30.0667   -6.7600 S   0  0  0  0  0  0  0  0  0  0  0  0
    2.2577   28.6693   -5.9481 C   0  0  0  0  0  0  0  0  0  0  0  0
    2.2183   27.2836   -6.3451 N   0  0  0  0  0  0  0  0  0  0  0  0
    1.5357   26.8340   -7.4883 C   0  0  0  0  0  0  0  0  0  0  0  0
    1.5155   25.4559   -7.7662 C   0  0  0  0  0  0  0  0  0  0  0  0
    0.8696   24.9172   -8.8472 C   0  0  0  0  0  0  0  0  0  0  0  0
    0.1925   25.7204   -9.7346 C   0  0  0  0  0  0  0  0  0  0  0  0
   -0.4760   25.2208  -10.8432 O   0  0  0  0  0  0  0  0  0  0  0  0
    0.2000   27.0727   -9.4800 C   0  0  0  0  0  0  0  0  0  0  0  0
    0.8571   27.6320   -8.3781 C   0  0  0  0  0  0  0  0  0  0  0  0
    2.7520   29.1682   -4.8273 N   0  0  0  0  0  0  0  0  0  0  0  0
    3.0778   32.3768   -3.0990 C   0  0  0  0  0  0  0  0  0  0  0  0
    3.6007   32.9307   -1.9190 C   0  0  0  0  0  0  0  0  0  0  0  0
    4.2938   32.1677   -1.0325 C   0  0  0  0  0  0  0  0  0  0  0  0
    4.8205   32.6587    0.1256 F   0  0  0  0  0  0  0  0  0  0  0  0
  1  2  1  0
  2  3  2  0
  3  4  1  0
  4  5  1  0
  5  6  2  0
  6  7  1  0
  7  8  1  0
  8  9  1  0
  9 10  1  0
 10 11  2  0
 11 12  1  0
 12 13  2  0
 13 14  1  0
 13 15  1  0
 15 16  2  0
  8 17  2  0
  4 18  2  0
 18 19  1  0
 19 20  2  0
 20 21  1  0
 20  2  1  0
 17  5  1  0
 16 10  1  0
M  END
$$$$
