
     RDKit          3D

 21 23  0  0  0  0  0  0  0  0999 V2000
  127.6806  140.0613  151.5870 O   0  0  0  0  0  0  0  0  0  0  0  0
  126.6272  139.5843  150.8104 C   0  0  0  0  0  0  0  0  0  0  0  0
  127.1630  139.3728  149.3839 C   0  0  0  0  0  0  0  0  0  0  0  0
  127.5991  140.6314  148.9154 N   0  0  0  0  0  0  0  0  0  0  0  0
  126.9358  141.2318  147.8311 C   0  0  0  0  0  0  0  0  0  0  0  0
  127.5665  142.5901  147.6513 C   0  0  0  0  0  0  0  0  0  0  0  0
  127.6263  143.5237  148.7466 N   0  0  0  0  0  0  0  0  0  0  0  0
  128.1438  143.0843  149.9796 C   0  0  0  0  0  0  0  0  0  0  0  0
  128.2459  143.8607  151.0585 C   0  0  0  0  0  0  0  0  0  0  0  0
  127.7849  145.2222  150.8993 C   0  0  0  0  0  0  0  0  0  0  0  0
  127.2988  145.6852  149.7896 C   0  0  0  0  0  0  0  0  0  0  0  0
  126.7836  147.3859  149.7847 Cl  0  0  0  0  0  0  0  0  0  0  0  0
  127.1699  144.8710  148.5880 C   0  0  0  0  0  0  0  0  0  0  0  0
  125.5158  144.9391  147.9230 Cl  0  0  0  0  0  0  0  0  0  0  0  0
  127.9963  142.7439  146.4628 N   0  0  0  0  0  0  0  0  0  0  0  0
  127.7246  141.5647  145.7181 C   0  0  0  0  0  0  0  0  0  0  0  0
  128.0296  141.3255  144.3882 C   0  0  0  0  0  0  0  0  0  0  0  0
  127.7011  140.1301  143.7987 C   0  0  0  0  0  0  0  0  0  0  0  0
  127.0643  139.1898  144.5720 C   0  0  0  0  0  0  0  0  0  0  0  0
  126.7617  139.4310  145.8970 C   0  0  0  0  0  0  0  0  0  0  0  0
  127.0835  140.6260  146.5080 C   0  0  0  0  0  0  0  0  0  0  0  0
  1  2  1  0
  2  3  1  0
  3  4  1  0
  4  5  1  0
  5  6  1  0
  6  7  1  0
  7  8  1  0
  8  9  2  0
  9 10  1  0
 10 11  2  0
 11 12  1  0
 11 13  1  0
 13 14  1  0
  6 15  2  0
 15 16  1  0
 16 17  2  0
 17 18  1  0
 18 19  2  0
 19 20  1  0
 20 21  2  0
 21  5  1  0
 13  7  1  0
 21 16  1  0
M  END
$$$$
