
     RDKit          3D

 21 23  0  0  0  0  0  0  0  0999 V2000
  140.3255  113.1452   74.6254 O   0  0  0  0  0  0  0  0  0  0  0  0
  139.4228  114.0669   74.0999 C   0  0  0  0  0  0  0  0  0  0  0  0
  139.3250  113.8074   72.5866 C   0  0  0  0  0  0  0  0  0  0  0  0
  138.1293  114.4112   72.1403 N   0  0  0  0  0  0  0  0  0  0  0  0
  137.9506  114.6561   70.7675 C   0  0  0  0  0  0  0  0  0  0  0  0
  136.5501  115.1952   70.6147 C   0  0  0  0  0  0  0  0  0  0  0  0
  135.4194  114.4569   71.1159 N   0  0  0  0  0  0  0  0  0  0  0  0
  135.6548  113.3421   71.9425 C   0  0  0  0  0  0  0  0  0  0  0  0
  134.6858  112.5876   72.4614 C   0  0  0  0  0  0  0  0  0  0  0  0
  133.3351  112.9798   72.1250 C   0  0  0  0  0  0  0  0  0  0  0  0
  133.0550  113.9960   71.3693 C   0  0  0  0  0  0  0  0  0  0  0  0
  131.3348  114.3238   71.0670 Cl  0  0  0  0  0  0  0  0  0  0  0  0
  134.0830  114.8459   70.7825 C   0  0  0  0  0  0  0  0  0  0  0  0
  133.8616  115.0235   69.0211 Cl  0  0  0  0  0  0  0  0  0  0  0  0
  136.5527  116.3191   70.0165 N   0  0  0  0  0  0  0  0  0  0  0  0
  137.8928  116.6703   69.7009 C   0  0  0  0  0  0  0  0  0  0  0  0
  138.3276  117.8130   69.0497 C   0  0  0  0  0  0  0  0  0  0  0  0
  139.6639  118.0168   68.8105 C   0  0  0  0  0  0  0  0  0  0  0  0
  140.5442  117.0525   69.2383 C   0  0  0  0  0  0  0  0  0  0  0  0
  140.1079  115.9148   69.8870 C   0  0  0  0  0  0  0  0  0  0  0  0
  138.7690  115.6914   70.1369 C   0  0  0  0  0  0  0  0  0  0  0  0
  1  2  1  0
  2  3  1  0
  3  4  1  0
  4  5  1  0
  5  6  1  0
  6  7  1  0
  7  8  1  0
  8  9  2  0
  9 10  1  0
 10 11  2  0
 11 12  1  0
 11 13  1  0
 13 14  1  0
  6 15  2  0
 15 16  1  0
 16 17  2  0
 17 18  1  0
 18 19  2  0
 19 20  1  0
 20 21  2  0
 21  5  1  0
 13  7  1  0
 21 16  1  0
M  END
$$$$
