
     RDKit          3D

 20 21  0  0  0  0  0  0  0  0999 V2000
  126.9035  134.9288  147.4708 C   0  0  0  0  0  0  0  0  0  0  0  0
  126.9384  136.4360  147.4511 C   0  0  0  0  0  0  0  0  0  0  0  0
  127.3496  136.8406  146.1040 N   0  0  0  0  0  0  0  0  0  0  0  0
  127.4198  138.2453  145.8544 C   0  0  0  0  0  0  0  0  0  0  0  0
  127.1630  139.1360  146.8407 N   0  0  0  0  0  0  0  0  0  0  0  0
  127.2146  140.4656  146.6626 C   0  0  0  0  0  0  0  0  0  0  0  0
  126.9295  141.3465  147.7564 N   0  0  0  0  0  0  0  0  0  0  0  0
  126.9021  142.7771  147.4947 C   0  0  0  0  0  0  0  0  0  0  0  0
  127.4966  143.5509  148.5966 C   0  0  0  0  0  0  0  0  0  0  0  0
  127.2535  144.8508  148.7132 C   0  0  0  0  0  0  0  0  0  0  0  0
  126.1526  145.6323  147.6265 Cl  0  0  0  0  0  0  0  0  0  0  0  0
  127.9174  145.6567  149.7722 C   0  0  0  0  0  0  0  0  0  0  0  0
  128.6921  144.5746  150.9353 Cl  0  0  0  0  0  0  0  0  0  0  0  0
  127.5362  140.9313  145.4483 N   0  0  0  0  0  0  0  0  0  0  0  0
  127.8123  140.1346  144.3903 C   0  0  0  0  0  0  0  0  0  0  0  0
  128.1369  140.6548  143.1653 C   0  0  0  0  0  0  0  0  0  0  0  0
  128.4118  139.8323  142.1113 C   0  0  0  0  0  0  0  0  0  0  0  0
  128.3464  138.4799  142.3415 C   0  0  0  0  0  0  0  0  0  0  0  0
  128.0251  137.9367  143.5533 C   0  0  0  0  0  0  0  0  0  0  0  0
  127.7471  138.7557  144.6193 C   0  0  0  0  0  0  0  0  0  0  0  0
  1  2  1  0
  2  3  1  0
  3  4  1  0
  4  5  2  0
  5  6  1  0
  6  7  1  0
  7  8  1  0
  8  9  1  0
  9 10  2  3
 10 11  1  0
 10 12  1  0
 12 13  1  0
  6 14  2  0
 14 15  1  0
 15 16  2  0
 16 17  1  0
 17 18  2  0
 18 19  1  0
 19 20  2  0
 20  4  1  0
 20 15  1  0
M  END
$$$$
