
     RDKit          3D

 21 23  0  0  0  0  0  0  0  0999 V2000
  128.9799  136.1010  141.6060 C   0  0  0  0  0  0  0  0  0  0  0  0
  127.7152  136.3642  142.1300 O   0  0  0  0  0  0  0  0  0  0  0  0
  127.7738  136.7843  143.4488 C   0  0  0  0  0  0  0  0  0  0  0  0
  127.9192  138.2590  143.5372 C   0  0  0  0  0  0  0  0  0  0  0  0
  128.2831  138.9470  142.4006 C   0  0  0  0  0  0  0  0  0  0  0  0
  128.4165  140.3155  142.4769 C   0  0  0  0  0  0  0  0  0  0  0  0
  128.1919  141.0041  143.6698 C   0  0  0  0  0  0  0  0  0  0  0  0
  127.8272  140.3333  144.8168 C   0  0  0  0  0  0  0  0  0  0  0  0
  127.5818  141.0059  146.0849 C   0  0  0  0  0  0  0  0  0  0  0  0
  127.9123  140.3878  147.1534 O   0  0  0  0  0  0  0  0  0  0  0  0
  127.0054  142.2879  146.1919 N   0  0  0  0  0  0  0  0  0  0  0  0
  127.2356  143.0742  147.3826 C   0  0  0  0  0  0  0  0  0  0  0  0
  126.9849  144.3506  147.5905 N   0  0  0  0  0  0  0  0  0  0  0  0
  127.2662  144.8887  148.7473 C   0  0  0  0  0  0  0  0  0  0  0  0
  127.0515  146.2351  149.1042 C   0  0  0  0  0  0  0  0  0  0  0  0
  127.3841  146.6804  150.3370 C   0  0  0  0  0  0  0  0  0  0  0  0
  127.9392  145.8917  151.3140 C   0  0  0  0  0  0  0  0  0  0  0  0
  128.1552  144.5733  150.9805 C   0  0  0  0  0  0  0  0  0  0  0  0
  127.8177  144.0871  149.7053 C   0  0  0  0  0  0  0  0  0  0  0  0
  127.9027  142.5898  148.8837 S   0  0  0  0  0  0  0  0  0  0  0  0
  127.7022  138.9540  144.7025 C   0  0  0  0  0  0  0  0  0  0  0  0
  1  2  1  0
  2  3  1  0
  3  4  1  0
  4  5  2  0
  5  6  1  0
  6  7  2  0
  7  8  1  0
  8  9  1  0
  9 10  2  0
  9 11  1  0
 11 12  1  0
 12 13  2  0
 13 14  1  0
 14 15  2  0
 15 16  1  0
 16 17  2  0
 17 18  1  0
 18 19  2  0
 19 20  1  0
  8 21  2  0
 21  4  1  0
 20 12  1  0
 19 14  1  0
M  END
$$$$
