
     RDKit          3D

 21 23  0  0  0  0  0  0  0  0999 V2000
  128.4011  136.2274  143.0633 C   0  0  0  0  0  0  0  0  0  0  0  0
  128.3665  137.6176  143.1609 O   0  0  0  0  0  0  0  0  0  0  0  0
  127.8240  138.0430  144.3625 C   0  0  0  0  0  0  0  0  0  0  0  0
  127.8524  139.5232  144.4710 C   0  0  0  0  0  0  0  0  0  0  0  0
  128.0660  140.2565  143.3246 C   0  0  0  0  0  0  0  0  0  0  0  0
  128.0903  141.6300  143.4197 C   0  0  0  0  0  0  0  0  0  0  0  0
  127.9047  142.2793  144.6410 C   0  0  0  0  0  0  0  0  0  0  0  0
  127.6897  141.5630  145.7983 C   0  0  0  0  0  0  0  0  0  0  0  0
  127.4907  142.1933  147.0959 C   0  0  0  0  0  0  0  0  0  0  0  0
  127.6833  141.4756  148.1354 O   0  0  0  0  0  0  0  0  0  0  0  0
  127.1013  143.5381  147.2609 N   0  0  0  0  0  0  0  0  0  0  0  0
  127.1597  144.1395  148.5739 C   0  0  0  0  0  0  0  0  0  0  0  0
  126.7960  145.3501  148.9446 N   0  0  0  0  0  0  0  0  0  0  0  0
  126.9268  145.7152  150.1921 C   0  0  0  0  0  0  0  0  0  0  0  0
  126.5797  146.9735  150.7236 C   0  0  0  0  0  0  0  0  0  0  0  0
  126.7613  147.2382  152.0372 C   0  0  0  0  0  0  0  0  0  0  0  0
  127.2799  146.3400  152.9366 C   0  0  0  0  0  0  0  0  0  0  0  0
  127.6241  145.1056  152.4326 C   0  0  0  0  0  0  0  0  0  0  0  0
  127.4447  144.8070  151.0706 C   0  0  0  0  0  0  0  0  0  0  0  0
  127.7178  143.4653  150.0460 S   0  0  0  0  0  0  0  0  0  0  0  0
  127.6716  140.1799  145.6645 C   0  0  0  0  0  0  0  0  0  0  0  0
  1  2  1  0
  2  3  1  0
  3  4  1  0
  4  5  2  0
  5  6  1  0
  6  7  2  0
  7  8  1  0
  8  9  1  0
  9 10  2  0
  9 11  1  0
 11 12  1  0
 12 13  2  0
 13 14  1  0
 14 15  2  0
 15 16  1  0
 16 17  2  0
 17 18  1  0
 18 19  2  0
 19 20  1  0
  8 21  2  0
 21  4  1  0
 20 12  1  0
 19 14  1  0
M  END
$$$$
