
     RDKit          3D

 17 17  0  0  0  0  0  0  0  0999 V2000
  127.1317  135.1868  143.7440 C   0  0  0  0  0  1  0  0  0  0  0  0
  127.8429  136.5109  143.4706 C   0  0  0  0  0  0  0  0  0  0  0  0
  128.1401  136.6926  142.0728 N   0  0  0  0  0  0  0  0  0  0  0  0
  128.5808  137.8209  141.6320 C   0  0  0  0  0  0  0  0  0  0  0  0
  128.7055  137.9578  140.2193 N   0  0  0  0  0  0  0  0  0  0  0  0
  129.1579  139.1862  139.6383 C   0  0  0  0  0  0  0  0  0  0  0  0
  129.4847  139.1135  138.1801 C   0  0  0  0  0  0  0  0  0  0  0  0
  130.7670  138.5607  138.0645 O   0  0  0  0  0  0  0  0  0  0  0  0
  127.0025  137.5519  144.0171 N   0  0  0  0  0  0  0  0  0  0  0  0
  126.4891  137.3709  145.3256 C   0  0  0  0  0  0  0  0  0  0  0  0
  125.7838  136.2789  145.7447 C   0  0  0  0  0  0  0  0  0  0  0  0
  125.3021  136.1372  147.0469 C   0  0  0  0  0  0  0  0  0  0  0  0
  125.5666  137.1636  147.9272 C   0  0  0  0  0  0  0  0  0  0  0  0
  124.9807  137.0259  149.5765 Cl  0  0  0  0  0  0  0  0  0  0  0  0
  126.2810  138.2861  147.5304 C   0  0  0  0  0  0  0  0  0  0  0  0
  126.7321  138.3842  146.2532 C   0  0  0  0  0  0  0  0  0  0  0  0
  127.6439  139.8154  145.7467 Cl  0  0  0  0  0  0  0  0  0  0  0  0
  1  2  1  0
  2  3  1  0
  3  4  2  3
  4  5  1  0
  5  6  1  0
  6  7  1  0
  7  8  1  0
  2  9  1  0
  9 10  1  0
 10 11  2  0
 11 12  1  0
 12 13  2  0
 13 14  1  0
 13 15  1  0
 15 16  2  0
 16 17  1  0
 16 10  1  0
M  CHG  1   1  -1
M  RAD  1   1   3
M  END
$$$$
