
     RDKit          3D

 28 30  0  0  0  0  0  0  0  0999 V2000
   19.4530  -21.2846  -16.8113 C   0  0  0  0  0  0  0  0  0  0  0  0
   20.0402  -21.9403  -17.7406 C   0  0  0  0  0  0  0  0  0  0  0  0
   20.1162  -23.3799  -17.5445 N   0  0  0  0  0  0  0  0  0  0  0  0
   20.2982  -24.2669  -18.5215 O   0  0  0  0  0  0  0  0  0  0  0  0
   21.1960  -25.2683  -18.1301 C   0  0  0  0  0  0  0  0  0  0  0  0
   22.2882  -24.7113  -17.3654 N   0  0  0  0  0  0  0  0  0  0  0  0
   23.0456  -23.9375  -18.1421 O   0  0  0  0  0  0  0  0  0  0  0  0
   22.6793  -22.5726  -18.1295 C   0  0  0  0  0  0  0  0  0  0  0  0
   21.8907  -22.2336  -19.3536 C   0  0  0  0  0  0  0  0  0  0  0  0
   20.6725  -21.3816  -18.9433 C   0  0  0  0  0  0  0  0  0  0  0  0
   21.0828  -19.9917  -18.8549 C   0  0  0  0  0  0  0  0  0  0  0  0
   20.4054  -19.6498  -19.9006 C   0  0  0  0  0  0  0  0  0  0  0  0
   19.9028  -21.0187  -20.1186 C   0  0  0  0  0  0  0  0  0  0  0  0
   18.4705  -21.0028  -20.1056 N   0  0  0  0  0  0  0  0  0  0  0  0
   17.6709  -21.2484  -21.2716 C   0  0  0  0  0  0  0  0  0  0  0  0
   17.5435  -22.5498  -21.6431 C   0  0  0  0  0  0  0  0  0  0  0  0
   16.8009  -22.8372  -22.8908 C   0  0  0  0  0  0  0  0  0  0  0  0
   16.4465  -24.0596  -23.1359 C   0  0  0  0  0  0  0  0  0  0  0  0
   15.8942  -25.0997  -21.8545 Cl  0  0  0  0  0  0  0  0  0  0  0  0
   16.4753  -24.6042  -24.5030 C   0  0  0  0  0  0  0  0  0  0  0  0
   15.2815  -24.3276  -25.3619 C   0  0  0  0  0  0  0  0  0  0  0  0
   17.6818  -24.1740  -25.2128 N   0  0  0  0  0  0  0  0  0  0  0  0
   17.9009  -24.6615  -26.5423 C   0  0  0  0  0  0  0  0  0  0  0  0
   19.0623  -24.7121  -27.1884 C   0  0  0  0  0  0  0  0  0  0  0  0
   20.3466  -24.3064  -26.7360 N   0  0  0  0  0  0  0  0  0  0  0  0
   20.6209  -24.0090  -25.4892 C   0  0  0  0  0  0  0  0  0  0  0  0
   19.7201  -24.0211  -24.3147 C   0  0  0  0  0  0  0  0  0  0  0  0
   18.5208  -23.3336  -24.5307 O   0  0  0  0  0  0  0  0  0  0  0  0
  1  2  2  0
  2  3  1  0
  3  4  1  0
  4  5  1  0
  5  6  1  0
  6  7  1  0
  7  8  1  0
  8  9  1  0
  9 10  1  0
 10 11  1  0
 11 12  2  0
 12 13  1  0
 13 14  1  0
 14 15  1  0
 15 16  2  3
 16 17  1  0
 17 18  2  3
 18 19  1  0
 18 20  1  0
 20 21  1  0
 20 22  1  0
 22 23  1  0
 23 24  2  0
 24 25  1  0
 25 26  2  0
 26 27  1  0
 27 28  1  0
 10  2  1  0
 28 22  1  0
 13 10  1  0
M  END
$$$$
