
     RDKit          3D

 24 25  0  0  0  0  0  0  0  0999 V2000
  129.4447  108.1982   61.0185 P   0  0  0  0  0  1  0  0  0  0  0  0
  129.7416  109.2193   62.4894 C   0  0  0  0  0  0  0  0  0  0  0  0
  129.7939  108.4187   63.6809 N   0  0  0  0  0  0  0  0  0  0  0  0
  128.7160  107.5606   64.0566 C   0  0  0  0  0  0  0  0  0  0  0  0
  128.8122  106.4426   65.2351 S   0  0  0  0  0  3  0  0  0  0  0  0
  129.6176  104.8988   64.8757 N   0  0  0  0  0  0  0  0  0  0  0  0
  129.5664  103.8701   65.8570 C   0  0  0  0  0  0  0  0  0  0  0  0
  130.1083  102.7518   65.6035 N   0  0  0  0  0  0  0  0  0  0  0  0
  130.5822  102.2916   64.3510 C   0  0  0  0  0  0  0  0  0  0  0  0
  131.8671  102.6331   63.9186 C   0  0  0  0  0  0  0  0  0  0  0  0
  132.3697  102.2043   62.7079 C   0  0  0  0  0  0  0  0  0  0  0  0
  131.6146  101.4123   61.8665 C   0  0  0  0  0  0  0  0  0  0  0  0
  130.3391  101.0616   62.2740 C   0  0  0  0  0  0  0  0  0  0  0  0
  129.8516  101.5004   63.4909 C   0  0  0  0  0  0  0  0  0  0  0  0
  128.9204  104.1454   67.0528 O   0  0  0  0  0  0  0  0  0  0  0  0
  129.1002  103.3221   68.1328 N   0  0  0  0  0  0  0  0  0  0  0  0
  128.3050  103.4743   69.2858 C   0  0  0  0  0  0  0  0  0  0  0  0
  128.7181  102.9562   70.5046 C   0  0  0  0  0  0  0  0  0  0  0  0
  127.9679  103.0861   71.6510 C   0  0  0  0  0  0  0  0  0  0  0  0
  126.7600  103.7467   71.6261 C   0  0  0  0  0  0  0  0  0  0  0  0
  125.7751  103.9314   73.0762 Cl  0  0  0  0  0  0  0  0  0  0  0  0
  126.3349  104.2680   70.4210 C   0  0  0  0  0  0  0  0  0  0  0  0
  124.7944  105.1095   70.3949 Cl  0  0  0  0  0  0  0  0  0  0  0  0
  127.0937  104.1328   69.2777 C   0  0  0  0  0  0  0  0  0  0  0  0
  1  2  1  0
  2  3  1  0
  3  4  1  0
  4  5  2  3
  5  6  1  0
  6  7  1  0
  7  8  2  3
  8  9  1  0
  9 10  2  0
 10 11  1  0
 11 12  2  0
 12 13  1  0
 13 14  2  0
  7 15  1  0
 15 16  1  0
 16 17  1  0
 17 18  2  0
 18 19  1  0
 19 20  2  0
 20 21  1  0
 20 22  1  0
 22 23  1  0
 22 24  2  0
 14  9  1  0
 24 17  1  0
M  CHG  2   1  -1   5  -1
M  RAD  1   1   2
M  END
$$$$
