
     RDKit          3D

 24 25  0  0  0  0  0  0  0  0999 V2000
    1.1486   -4.8834  -55.4762 B   0  0  0  0  0  1  0  0  0  0  0  0
    0.4176   -4.7752  -56.8569 C   0  0  0  0  0  0  0  0  0  0  0  0
   -0.8817   -4.9698  -56.9691 C   0  0  0  0  0  0  0  0  0  0  0  0
   -1.4955   -6.2115  -56.4863 C   0  0  0  0  0  0  0  0  0  0  0  0
   -2.6881   -6.5412  -56.8923 C   0  0  0  0  0  0  0  0  0  0  0  0
   -3.5046   -7.9105  -56.1967 Cl  0  0  0  0  0  0  0  0  0  0  0  0
   -3.3468   -5.7674  -57.9302 C   0  0  0  0  0  0  0  0  0  0  0  0
   -3.9169   -6.3258  -58.9809 C   0  0  0  0  0  0  0  0  0  0  0  0
   -3.4043   -4.3592  -57.8546 O   0  0  0  0  0  1  0  0  0  0  0  0
    1.1820   -4.4600  -58.0056 N   0  0  0  0  0  0  0  0  0  0  0  0
    0.8666   -5.1464  -59.2435 C   0  0  0  0  0  0  0  0  0  0  0  0
    1.4538   -4.7974  -60.3153 N   0  0  0  0  0  0  0  0  0  0  0  0
    1.2426   -5.3836  -61.6040 C   0  0  0  0  0  0  0  0  0  0  0  0
    1.9382   -4.9247  -62.7084 C   0  0  0  0  0  0  0  0  0  0  0  0
    1.7702   -5.4536  -63.9610 C   0  0  0  0  0  0  0  0  0  0  0  0
    0.8571   -6.4984  -64.1190 C   0  0  0  0  0  0  0  0  0  0  0  0
    0.1585   -6.9630  -63.0235 C   0  0  0  0  0  0  0  0  0  0  0  0
    0.3539   -6.4065  -61.7797 C   0  0  0  0  0  0  0  0  0  0  0  0
   -0.5478   -7.0058  -60.3642 P   0  0  0  0  0  5  0  0  0  0  0  0
   -2.2648   -6.9535  -60.6271 N   0  0  0  0  0  0  0  0  0  0  0  0
   -2.8053   -8.2680  -60.6455 C   0  0  0  0  0  0  0  0  0  0  0  0
   -3.1832   -8.8048  -61.9909 C   0  0  0  0  0  0  0  0  0  0  0  0
   -4.0510   -9.8715  -61.8558 O   0  0  0  0  0  0  0  0  0  0  0  0
   -0.1005   -6.1699  -59.1095 N   0  0  0  0  0  0  0  0  0  0  0  0
  1  2  1  0
  2  3  2  3
  3  4  1  0
  4  5  2  3
  5  6  1  0
  5  7  1  0
  7  8  2  0
  7  9  1  0
  2 10  1  0
 10 11  1  0
 11 12  2  0
 12 13  1  0
 13 14  2  0
 14 15  1  0
 15 16  2  0
 16 17  1  0
 17 18  2  0
 18 19  1  0
 19 20  1  0
 20 21  1  0
 21 22  1  0
 22 23  1  0
 19 24  2  0
 24 11  1  0
 18 13  1  0
M  CHG  2   1  -1   9  -1
M  RAD  1   1   2
M  END
$$$$
