
     RDKit          3D

 24 25  0  0  0  0  0  0  0  0999 V2000
  -10.0616  -12.4988   -5.4057 B   0  0  0  0  0  1  0  0  0  0  0  0
  -10.6962  -12.7691   -3.9998 C   0  0  0  0  0  0  0  0  0  0  0  0
  -11.7149  -12.0612   -3.5527 C   0  0  0  0  0  0  0  0  0  0  0  0
  -11.7731  -10.6127   -3.7756 C   0  0  0  0  0  0  0  0  0  0  0  0
  -12.7556   -9.9220   -3.2720 C   0  0  0  0  0  0  0  0  0  0  0  0
  -13.4258   -8.5793   -4.1514 Cl  0  0  0  0  0  0  0  0  0  0  0  0
  -13.3001  -10.2677   -1.9705 C   0  0  0  0  0  0  0  0  0  0  0  0
  -13.8957   -9.3854   -1.1909 C   0  0  0  0  0  0  0  0  0  0  0  0
  -13.2121  -11.5875   -1.4781 O   0  0  0  0  0  1  0  0  0  0  0  0
  -10.1536  -13.8019   -3.1985 N   0  0  0  0  0  0  0  0  0  0  0  0
  -10.9643  -14.9817   -2.9664 C   0  0  0  0  0  0  0  0  0  0  0  0
  -10.5034  -15.9210   -2.2450 N   0  0  0  0  0  0  0  0  0  0  0  0
  -11.1892  -17.1380   -1.9325 C   0  0  0  0  0  0  0  0  0  0  0  0
  -10.5918  -18.0974   -1.1343 C   0  0  0  0  0  0  0  0  0  0  0  0
  -11.2080  -19.2767   -0.8080 C   0  0  0  0  0  0  0  0  0  0  0  0
  -12.4914  -19.5106   -1.3064 C   0  0  0  0  0  0  0  0  0  0  0  0
  -13.0955  -18.5598   -2.1033 C   0  0  0  0  0  0  0  0  0  0  0  0
  -12.4451  -17.3860   -2.4100 C   0  0  0  0  0  0  0  0  0  0  0  0
  -13.2245  -16.1574   -3.4391 P   0  0  0  0  0  5  0  0  0  0  0  0
  -13.7219  -16.8205   -4.9665 N   0  0  0  0  0  0  0  0  0  0  0  0
  -14.8131  -16.0807   -5.4980 C   0  0  0  0  0  0  0  0  0  0  0  0
  -16.1155  -16.2174   -4.7728 C   0  0  0  0  0  0  0  0  0  0  0  0
  -17.1159  -15.5492   -5.4524 O   0  0  0  0  0  0  0  0  0  0  0  0
  -12.2300  -14.9495   -3.5972 N   0  0  0  0  0  0  0  0  0  0  0  0
  1  2  1  0
  2  3  2  3
  3  4  1  0
  4  5  2  3
  5  6  1  0
  5  7  1  0
  7  8  2  0
  7  9  1  0
  2 10  1  0
 10 11  1  0
 11 12  2  0
 12 13  1  0
 13 14  2  0
 14 15  1  0
 15 16  2  0
 16 17  1  0
 17 18  2  0
 18 19  1  0
 19 20  1  0
 20 21  1  0
 21 22  1  0
 22 23  1  0
 19 24  2  0
 24 11  1  0
 18 13  1  0
M  CHG  2   1  -1   9  -1
M  RAD  1   1   2
M  END
$$$$
