
     RDKit          3D

 27 29  0  0  0  0  0  0  0  0999 V2000
  -12.3148   -1.1808  -59.2156 C   0  0  0  0  0  0  0  0  0  0  0  0
  -12.7382   -1.5980  -57.9296 O   0  0  0  0  0  0  0  0  0  0  0  0
  -12.2438   -2.7933  -57.4053 C   0  0  0  0  0  0  0  0  0  0  0  0
  -11.3511   -3.5713  -58.1125 C   0  0  0  0  0  0  0  0  0  0  0  0
  -10.8659   -4.7518  -57.5894 C   0  0  0  0  0  0  0  0  0  0  0  0
  -11.2474   -5.2086  -56.3416 C   0  0  0  0  0  0  0  0  0  0  0  0
  -10.6200   -6.7129  -55.6917 S   0  0  0  0  0  6  0  0  0  0  0  0
  -10.4041   -7.7082  -56.8144 O   0  0  0  0  0  0  0  0  0  0  0  0
  -11.6027   -7.2391  -54.6864 O   0  0  0  0  0  0  0  0  0  0  0  0
   -9.0664   -6.3637  -54.9366 C   0  0  0  0  0  0  0  0  0  0  0  0
   -8.0587   -5.8823  -55.9164 C   0  0  0  0  0  0  0  0  0  0  0  0
   -7.6443   -4.7034  -55.7678 O   0  0  0  0  0  0  0  0  0  0  0  0
   -7.5717   -6.6902  -56.9751 N   0  0  0  0  0  0  0  0  0  0  0  0
   -6.4311   -6.1704  -57.7059 C   0  0  0  0  0  0  0  0  0  0  0  0
   -5.7517   -6.7520  -58.6737 N   0  0  0  0  0  0  0  0  0  0  0  0
   -4.7484   -6.1418  -59.2250 C   0  0  0  0  0  0  0  0  0  0  0  0
   -3.9300   -6.7305  -60.3240 C   0  0  0  0  0  0  0  0  0  0  0  0
   -4.1949   -7.9507  -60.8770 C   0  0  0  0  0  0  0  0  0  0  0  0
   -3.3901   -8.4441  -61.9026 C   0  0  0  0  0  0  0  0  0  0  0  0
   -2.3203   -7.7260  -62.3807 C   0  0  0  0  0  0  0  0  0  0  0  0
   -1.4588   -8.2665  -63.4865 C   0  0  0  0  0  0  0  0  0  0  0  0
   -2.0385   -6.4953  -61.8358 C   0  0  0  0  0  0  0  0  0  0  0  0
   -2.8378   -6.0126  -60.8219 C   0  0  0  0  0  0  0  0  0  0  0  0
   -4.4440   -4.8862  -58.7527 C   0  0  0  0  0  0  0  0  0  0  0  0
   -5.6306   -4.6712  -57.5409 S   0  0  0  0  0  0  0  0  0  0  0  0
  -12.1399   -4.4333  -55.6316 C   0  0  0  0  0  0  0  0  0  0  0  0
  -12.6272   -3.2481  -56.1567 C   0  0  0  0  0  0  0  0  0  0  0  0
  1  2  1  0
  2  3  1  0
  3  4  2  0
  4  5  1  0
  5  6  2  0
  6  7  1  0
  7  8  2  0
  7  9  2  0
  7 10  1  0
 10 11  1  0
 11 12  2  0
 11 13  1  0
 13 14  1  0
 14 15  2  0
 15 16  1  0
 16 17  1  0
 17 18  2  0
 18 19  1  0
 19 20  2  0
 20 21  1  0
 20 22  1  0
 22 23  2  0
 16 24  2  0
 24 25  1  0
  6 26  1  0
 26 27  2  0
 27  3  1  0
 25 14  1  0
 23 17  1  0
M  END
$$$$
