
     RDKit          3D

 27 29  0  0  0  0  0  0  0  0999 V2000
  -12.3477   -1.3972  -59.8973 C   0  0  0  0  0  0  0  0  0  0  0  0
  -12.6787   -1.8056  -58.5817 O   0  0  0  0  0  0  0  0  0  0  0  0
  -11.9545   -2.8407  -57.9883 C   0  0  0  0  0  0  0  0  0  0  0  0
  -11.0296   -3.5710  -58.7050 C   0  0  0  0  0  0  0  0  0  0  0  0
  -10.3167   -4.5930  -58.1133 C   0  0  0  0  0  0  0  0  0  0  0  0
  -10.4930   -4.9320  -56.7847 C   0  0  0  0  0  0  0  0  0  0  0  0
   -9.5773   -6.2351  -56.0483 S   0  0  0  0  0  6  0  0  0  0  0  0
   -9.2996   -7.3139  -57.0763 O   0  0  0  0  0  0  0  0  0  0  0  0
  -10.3727   -6.7792  -54.8973 O   0  0  0  0  0  0  0  0  0  0  0  0
   -8.0422   -5.5670  -55.4981 C   0  0  0  0  0  0  0  0  0  0  0  0
   -7.1445   -5.2121  -56.6275 C   0  0  0  0  0  0  0  0  0  0  0  0
   -7.0738   -3.9930  -56.9315 O   0  0  0  0  0  0  0  0  0  0  0  0
   -6.3942   -6.1790  -57.3436 N   0  0  0  0  0  0  0  0  0  0  0  0
   -5.3417   -5.6672  -58.2014 C   0  0  0  0  0  0  0  0  0  0  0  0
   -4.5092   -6.3490  -58.9620 N   0  0  0  0  0  0  0  0  0  0  0  0
   -3.6187   -5.7295  -59.6737 C   0  0  0  0  0  0  0  0  0  0  0  0
   -2.6416   -6.4267  -60.5586 C   0  0  0  0  0  0  0  0  0  0  0  0
   -2.6657   -7.7746  -60.7766 C   0  0  0  0  0  0  0  0  0  0  0  0
   -1.7225   -8.3649  -61.6162 C   0  0  0  0  0  0  0  0  0  0  0  0
   -0.7535   -7.6170  -62.2409 C   0  0  0  0  0  0  0  0  0  0  0  0
    0.2587   -8.2626  -63.1441 C   0  0  0  0  0  0  0  0  0  0  0  0
   -0.7140   -6.2583  -62.0331 C   0  0  0  0  0  0  0  0  0  0  0  0
   -1.6492   -5.6801  -61.2018 C   0  0  0  0  0  0  0  0  0  0  0  0
   -3.5958   -4.3566  -59.5896 C   0  0  0  0  0  0  0  0  0  0  0  0
   -4.8650   -4.0524  -58.4856 S   0  0  0  0  0  0  0  0  0  0  0  0
  -11.4169   -4.2039  -56.0650 C   0  0  0  0  0  0  0  0  0  0  0  0
  -12.1328   -3.1778  -56.6588 C   0  0  0  0  0  0  0  0  0  0  0  0
  1  2  1  0
  2  3  1  0
  3  4  2  0
  4  5  1  0
  5  6  2  0
  6  7  1  0
  7  8  2  0
  7  9  2  0
  7 10  1  0
 10 11  1  0
 11 12  2  0
 11 13  1  0
 13 14  1  0
 14 15  2  0
 15 16  1  0
 16 17  1  0
 17 18  2  0
 18 19  1  0
 19 20  2  0
 20 21  1  0
 20 22  1  0
 22 23  2  0
 16 24  2  0
 24 25  1  0
  6 26  1  0
 26 27  2  0
 27  3  1  0
 25 14  1  0
 23 17  1  0
M  END
$$$$
