
     RDKit          3D

 21 22  0  0  0  0  0  0  0  0999 V2000
    5.5962   12.4874  -25.0753 C   0  0  0  0  0  0  0  0  0  0  0  0
    4.4773   12.3515  -24.0388 C   0  0  0  0  0  0  0  0  0  0  0  0
    3.3790   11.9154  -24.5230 N   0  0  0  0  0  0  0  0  0  0  0  0
    2.0711   11.5990  -24.0677 C   0  0  0  0  0  0  0  0  0  0  0  0
    1.1162   12.5939  -24.3458 C   0  0  0  0  0  0  0  0  0  0  0  0
   -0.2190   12.5245  -24.0068 C   0  0  0  0  0  0  0  0  0  0  0  0
   -0.6500   11.4026  -23.3510 C   0  0  0  0  0  0  0  0  0  0  0  0
    0.2791   10.4238  -23.0777 C   0  0  0  0  0  0  0  0  0  0  0  0
    1.6404   10.4597  -23.4055 C   0  0  0  0  0  0  0  0  0  0  0  0
    2.3229    9.2360  -22.9820 C   0  0  0  0  0  0  0  0  0  0  0  0
    1.5863    7.9650  -23.0346 N   0  0  0  0  0  0  0  0  0  0  0  0
    2.0833    6.7642  -22.4069 C   0  0  0  0  0  0  0  0  0  0  0  0
    2.9360    6.9917  -21.1968 C   0  0  0  0  0  0  0  0  0  0  0  0
    2.1911    7.3653  -20.0748 O   0  0  0  0  0  0  0  0  0  0  0  0
    3.5368    9.0521  -22.5634 N   0  0  0  0  0  0  0  0  0  0  0  0
    4.3515   10.1495  -22.4948 C   0  0  0  0  0  0  0  0  0  0  0  0
    5.4917   10.5420  -21.7345 C   0  0  0  0  0  0  0  0  0  0  0  0
    5.7356   11.8880  -21.8831 C   0  0  0  0  0  0  0  0  0  0  0  0
    7.1369   12.4797  -20.9855 Cl  0  0  0  0  0  0  0  0  0  0  0  0
    4.8678   12.7787  -22.6993 C   0  0  0  0  0  0  0  0  0  0  0  0
    3.5011   13.4101  -21.7431 Cl  0  0  0  0  0  0  0  0  0  0  0  0
  1  2  1  0
  2  3  2  0
  3  4  1  0
  4  5  2  0
  5  6  1  0
  6  7  2  0
  7  8  1  0
  8  9  2  0
  9 10  1  0
 10 11  1  0
 11 12  1  0
 12 13  1  0
 13 14  1  0
 10 15  2  0
 15 16  1  0
 16 17  1  0
 17 18  2  0
 18 19  1  0
 18 20  1  0
 20 21  1  0
 20  2  1  0
  9  4  1  0
M  END
$$$$
