
     RDKit          3D

 35 37  0  0  0  0  0  0  0  0999 V2000
  129.8761  136.9662  141.5109 O   0  0  0  0  0  0  0  0  0  0  0  0
  129.2081  137.4098  142.7949 C   0  0  0  0  0  0  0  0  0  0  0  0
  127.9761  136.5995  142.7912 C   0  0  0  0  0  0  0  0  0  0  0  0
  127.1550  136.7615  143.8661 N   0  0  0  0  0  0  0  0  0  0  0  0
  126.6311  137.4396  144.9558 C   0  0  0  0  0  0  0  0  0  0  0  0
  127.4624  138.4232  145.4705 N   0  0  0  0  0  0  0  0  0  0  0  0
  127.2111  138.8942  146.6857 C   0  0  0  0  0  0  0  0  0  0  0  0
  128.2486  139.8777  147.1213 N   0  0  0  0  0  0  0  0  0  0  0  0
  128.2779  140.4851  148.3827 C   0  0  0  0  0  0  0  0  0  0  0  0
  128.5291  141.9737  148.5742 C   0  0  0  0  0  0  0  0  0  0  0  0
  127.8398  142.6427  149.2835 C   0  0  0  0  0  0  0  0  0  0  0  0
  126.5068  141.3867  150.1076 Cl  0  0  0  0  0  0  0  0  0  0  0  0
  127.5253  143.8700  149.9771 C   0  0  0  0  0  0  0  0  0  0  0  0
  126.6994  144.8022  149.6056 C   0  0  0  0  0  0  0  0  0  0  0  0
  126.5668  145.9786  149.3070 C   0  0  0  0  0  0  0  0  0  0  0  0
  126.1428  146.3615  148.0593 C   0  0  0  0  0  0  0  0  0  0  0  0
  125.1429  145.5607  147.1904 C   0  0  0  0  0  0  0  0  0  0  0  0
  124.0063  146.5418  147.0011 C   0  0  0  0  0  0  0  0  0  0  0  0
  122.8054  146.2751  146.2509 C   0  0  0  0  0  0  0  0  0  0  0  0
  121.9275  147.5413  146.3185 C   0  0  0  0  0  0  0  0  0  0  0  0
  120.8035  147.5780  145.6158 O   0  0  0  0  0  0  0  0  0  0  0  0
  119.6761  148.2221  146.0291 C   0  0  0  0  0  0  0  0  0  0  0  0
  119.5224  148.5051  147.7436 Cl  0  0  0  0  0  0  0  0  0  0  0  0
  126.9598  147.5360  150.2430 C   0  0  0  0  0  0  0  0  0  0  0  0
  127.7754  146.5860  150.8933 C   0  0  0  0  0  0  0  0  0  0  0  0
  128.3730  145.8874  151.3913 C   0  0  0  0  0  0  0  0  0  0  0  0
  129.0848  145.0220  152.0022 C   0  0  0  0  0  0  0  0  0  0  0  0
  128.4875  143.9434  151.1328 C   0  0  0  0  0  0  0  0  0  0  0  0
  126.2549  138.4998  147.4352 N   0  0  0  0  0  0  0  0  0  0  0  0
  125.3828  137.5184  146.9787 C   0  0  0  0  0  0  0  0  0  0  0  0
  124.2844  137.1537  147.7117 C   0  0  0  0  0  0  0  0  0  0  0  0
  123.4117  136.2749  147.0849 C   0  0  0  0  0  0  0  0  0  0  0  0
  123.4799  135.7876  145.9578 C   0  0  0  0  0  0  0  0  0  0  0  0
  124.6925  136.1005  145.0582 C   0  0  0  0  0  0  0  0  0  0  0  0
  125.5462  136.9511  145.6860 C   0  0  0  0  0  0  0  0  0  0  0  0
  1  2  1  0
  2  3  1  0
  3  4  1  0
  4  5  1  0
  5  6  2  0
  6  7  1  0
  7  8  1  0
  8  9  1  0
  9 10  1  0
 10 11  2  3
 11 12  1  0
 11 13  1  0
 13 14  2  0
 14 15  2  0
 15 16  1  0
 16 17  1  0
 17 18  1  0
 18 19  1  0
 19 20  1  0
 20 21  1  0
 21 22  1  0
 22 23  1  0
 15 24  1  0
 24 25  1  0
 25 26  3  0
 26 27  1  0
 27 28  2  0
  7 29  2  0
 29 30  1  0
 30 31  2  0
 31 32  1  0
 32 33  2  0
 33 34  1  0
 34 35  2  0
 35  5  1  0
 28 13  1  0
 35 30  1  0
M  END
$$$$
