
     RDKit          3D

 35 37  0  0  0  0  0  0  0  0999 V2000
  137.8954  159.7451  143.2767 O   0  0  0  0  0  0  0  0  0  0  0  0
  139.1260  159.6090  144.1478 C   0  0  0  0  0  0  0  0  0  0  0  0
  139.8714  158.5418  143.4549 C   0  0  0  0  0  0  0  0  0  0  0  0
  139.7346  157.2891  143.9724 N   0  0  0  0  0  0  0  0  0  0  0  0
  139.3953  155.9455  143.9371 C   0  0  0  0  0  0  0  0  0  0  0  0
  138.5001  155.6082  142.9329 N   0  0  0  0  0  0  0  0  0  0  0  0
  137.8658  154.4451  143.0128 C   0  0  0  0  0  0  0  0  0  0  0  0
  136.8774  154.2788  141.9042 N   0  0  0  0  0  0  0  0  0  0  0  0
  135.6291  153.6608  142.0479 C   0  0  0  0  0  0  0  0  0  0  0  0
  135.3961  152.4828  142.9826 C   0  0  0  0  0  0  0  0  0  0  0  0
  134.3027  152.1822  143.3569 C   0  0  0  0  0  0  0  0  0  0  0  0
  133.2901  151.6174  141.7171 Cl  0  0  0  0  0  0  0  0  0  0  0  0
  133.3406  151.8803  144.3909 C   0  0  0  0  0  0  0  0  0  0  0  0
  133.3429  152.2950  145.6226 C   0  0  0  0  0  0  0  0  0  0  0  0
  133.3803  151.9740  146.8000 C   0  0  0  0  0  0  0  0  0  0  0  0
  134.4120  152.3587  147.6190 C   0  0  0  0  0  0  0  0  0  0  0  0
  135.2333  151.3915  148.5057 C   0  0  0  0  0  0  0  0  0  0  0  0
  136.2786  152.3024  149.1122 C   0  0  0  0  0  0  0  0  0  0  0  0
  137.1781  151.9300  150.1743 C   0  0  0  0  0  0  0  0  0  0  0  0
  138.6089  152.2677  149.7079 C   0  0  0  0  0  0  0  0  0  0  0  0
  139.6225  152.0242  150.5274 O   0  0  0  0  0  0  0  0  0  0  0  0
  140.9041  152.4147  150.2790 C   0  0  0  0  0  0  0  0  0  0  0  0
  141.1568  154.1126  149.9682 Cl  0  0  0  0  0  0  0  0  0  0  0  0
  132.2776  150.8672  147.8077 C   0  0  0  0  0  0  0  0  0  0  0  0
  132.0094  150.4339  146.4920 C   0  0  0  0  0  0  0  0  0  0  0  0
  131.7926  150.1148  145.5202 C   0  0  0  0  0  0  0  0  0  0  0  0
  131.5237  149.7460  144.3284 C   0  0  0  0  0  0  0  0  0  0  0  0
  132.4285  150.8346  143.8066 C   0  0  0  0  0  0  0  0  0  0  0  0
  138.0088  153.6024  143.9620 N   0  0  0  0  0  0  0  0  0  0  0  0
  138.8930  153.8773  144.9987 C   0  0  0  0  0  0  0  0  0  0  0  0
  139.1513  152.9478  145.9713 C   0  0  0  0  0  0  0  0  0  0  0  0
  140.1602  153.2810  146.8646 C   0  0  0  0  0  0  0  0  0  0  0  0
  140.8640  154.2891  146.8972 C   0  0  0  0  0  0  0  0  0  0  0  0
  140.6362  155.4181  145.8720 C   0  0  0  0  0  0  0  0  0  0  0  0
  139.6385  155.0871  145.0108 C   0  0  0  0  0  0  0  0  0  0  0  0
  1  2  1  0
  2  3  1  0
  3  4  1  0
  4  5  1  0
  5  6  2  0
  6  7  1  0
  7  8  1  0
  8  9  1  0
  9 10  1  0
 10 11  2  3
 11 12  1  0
 11 13  1  0
 13 14  2  0
 14 15  2  0
 15 16  1  0
 16 17  1  0
 17 18  1  0
 18 19  1  0
 19 20  1  0
 20 21  1  0
 21 22  1  0
 22 23  1  0
 15 24  1  0
 24 25  1  0
 25 26  3  0
 26 27  1  0
 27 28  2  0
  7 29  2  0
 29 30  1  0
 30 31  2  0
 31 32  1  0
 32 33  2  0
 33 34  1  0
 34 35  2  0
 35  5  1  0
 28 13  1  0
 35 30  1  0
M  END
$$$$
