
     RDKit          3D

 22 24  0  0  0  0  0  0  0  0999 V2000
  126.5607  147.1175  152.3362 N   0  0  0  0  0  0  0  0  0  0  0  0
  126.5193  146.3685  151.1227 C   0  0  0  0  0  0  0  0  0  0  0  0
  125.5076  146.5423  150.2144 C   0  0  0  0  0  0  0  0  0  0  0  0
  125.4652  145.8070  149.0210 C   0  0  0  0  0  0  0  0  0  0  0  0
  126.4304  144.8799  148.7026 C   0  0  0  0  0  0  0  0  0  0  0  0
  126.4874  144.1012  147.5348 N   0  0  0  0  0  0  0  0  0  0  0  0
  126.8603  142.7229  147.4647 C   0  0  0  0  0  0  0  0  0  0  0  0
  127.2038  141.9570  148.4920 N   0  0  0  0  0  0  0  0  0  0  0  0
  127.5513  140.6506  148.3824 C   0  0  0  0  0  0  0  0  0  0  0  0
  127.9431  139.8733  149.5727 C   0  0  0  0  0  0  0  0  0  0  0  0
  127.4324  140.4814  150.8584 C   0  0  0  0  0  0  0  0  0  0  0  0
  128.3096  141.4319  151.3599 O   0  0  0  0  0  0  0  0  0  0  0  0
  127.5603  140.0428  147.1463 C   0  0  0  0  0  0  0  0  0  0  0  0
  127.9019  138.7198  147.0074 C   0  0  0  0  0  0  0  0  0  0  0  0
  127.8965  138.1294  145.7344 C   0  0  0  0  0  0  0  0  0  0  0  0
  127.5452  138.8981  144.6449 C   0  0  0  0  0  0  0  0  0  0  0  0
  127.2080  140.2213  144.8224 C   0  0  0  0  0  0  0  0  0  0  0  0
  127.2056  140.8264  146.0675 C   0  0  0  0  0  0  0  0  0  0  0  0
  126.8727  142.1120  146.2421 N   0  0  0  0  0  0  0  0  0  0  0  0
  127.4438  144.7286  149.6482 C   0  0  0  0  0  0  0  0  0  0  0  0
  127.4909  145.4479  150.8223 C   0  0  0  0  0  0  0  0  0  0  0  0
  128.7857  145.2296  151.9903 Cl  0  0  0  0  0  0  0  0  0  0  0  0
  1  2  1  0
  2  3  2  0
  3  4  1  0
  4  5  2  0
  5  6  1  0
  6  7  1  0
  7  8  2  0
  8  9  1  0
  9 10  1  0
 10 11  1  0
 11 12  1  0
  9 13  2  0
 13 14  1  0
 14 15  2  0
 15 16  1  0
 16 17  2  0
 17 18  1  0
 18 19  2  0
  5 20  1  0
 20 21  2  0
 21 22  1  0
 21  2  1  0
 19  7  1  0
 18 13  1  0
M  END
$$$$
