
     RDKit          3D

 29 31  0  0  0  0  0  0  0  0999 V2000
   42.6429   47.7347   17.0642 C   0  0  0  0  0  0  0  0  0  0  0  0
   41.8007   47.6693   18.0711 C   0  0  0  0  0  0  0  0  0  0  0  0
   41.4497   48.8091   18.8376 N   0  0  0  0  0  0  0  0  0  0  0  0
   41.3713   48.6651   20.2754 C   0  0  0  0  0  0  0  0  0  0  0  0
   41.4544   47.2583   20.7038 C   0  0  0  0  0  0  0  0  0  0  0  0
   42.4776   46.5170   20.6249 N   0  0  0  0  0  0  0  0  0  0  0  0
   42.1877   45.1759   21.1484 C   0  0  0  0  0  0  0  0  0  0  0  0
   42.4926   45.2448   22.6128 C   0  0  0  0  0  0  0  0  0  0  0  0
   42.9879   44.2900   20.4137 N   0  0  0  0  0  0  0  0  0  0  0  0
   43.2997   43.0169   20.9365 C   0  0  0  0  0  0  0  0  0  0  0  0
   43.2775   42.0370   19.8154 C   0  0  0  0  0  0  0  0  0  0  0  0
   43.5236   42.4700   18.5850 C   0  0  0  0  0  0  0  0  0  0  0  0
   43.5092   41.3404   17.2106 Cl  0  0  0  0  0  0  0  0  0  0  0  0
   43.8251   43.8833   18.2323 C   0  0  0  0  0  0  0  0  0  0  0  0
   45.0871   43.9129   17.4902 N   0  0  0  0  0  0  0  0  0  0  0  0
   43.8722   44.7996   19.4355 C   0  0  0  0  0  0  0  0  0  0  0  0
   45.5769   44.7918   20.0104 Cl  0  0  0  0  0  0  0  0  0  0  0  0
   40.7182   45.1157   20.8634 C   0  0  0  0  0  0  0  0  0  0  0  0
   39.9690   44.1822   20.3584 C   0  0  0  0  0  0  0  0  0  0  0  0
   38.5384   44.1973   20.1123 C   0  0  0  0  0  0  0  0  0  0  0  0
   37.5347   44.2602   20.9505 C   0  0  0  0  0  0  0  0  0  0  0  0
   37.6027   44.3352   22.4295 C   0  0  0  0  0  0  0  0  0  0  0  0
   37.7360   45.5681   22.9550 O   0  0  0  0  0  0  0  0  0  0  0  0
   36.6655   46.3839   23.0554 C   0  0  0  0  0  0  0  0  0  0  0  0
   35.9407   46.7795   21.8369 C   0  0  0  0  0  0  0  0  0  0  0  0
   36.7033   47.1975   20.7008 N   0  0  0  0  0  0  0  0  0  0  0  0
   38.0886   47.5737   20.6615 C   0  0  0  0  0  0  0  0  0  0  0  0
   39.0468   46.9151   21.0231 N   0  0  0  0  0  0  0  0  0  0  0  0
   40.2890   46.4931   21.3093 C   0  0  0  0  0  0  0  0  0  0  0  0
  1  2  2  0
  2  3  1  0
  3  4  1  0
  4  5  1  0
  5  6  2  0
  6  7  1  0
  7  8  1  0
  7  9  1  0
  9 10  1  0
 10 11  1  0
 11 12  2  0
 12 13  1  0
 12 14  1  0
 14 15  1  0
 14 16  1  0
 16 17  1  0
  7 18  1  0
 18 19  2  0
 19 20  1  0
 20 21  2  0
 21 22  1  0
 22 23  1  0
 23 24  1  0
 24 25  1  0
 25 26  1  0
 26 27  1  0
 27 28  2  0
 28 29  1  0
 29  5  1  0
 16  9  1  0
 29 18  1  0
M  END
$$$$
