
     RDKit          3D

 26 27  0  0  0  0  0  0  0  0999 V2000
   10.7401   28.6628   -2.3595 C   0  0  0  0  0  0  0  0  0  0  0  0
    9.3158   29.1923   -2.2406 C   0  0  0  0  0  0  0  0  0  0  0  0
    8.7627   29.5467   -3.4706 O   0  0  0  0  0  0  0  0  0  0  0  0
    7.5282   30.1230   -3.6712 C   0  0  0  0  0  0  0  0  0  0  0  0
    6.6532   30.4608   -2.6641 C   0  0  0  0  0  0  0  0  0  0  0  0
    5.4229   31.0402   -2.9534 C   0  0  0  0  0  0  0  0  0  0  0  0
    5.0257   31.3010   -4.2472 C   0  0  0  0  0  0  0  0  0  0  0  0
    3.7117   31.9175   -4.5017 C   0  0  0  0  0  0  0  0  0  0  0  0
    3.2498   32.6604   -3.2891 C   0  0  0  0  0  0  0  0  0  0  0  0
    2.7283   30.9640   -4.9719 N   0  0  0  0  0  0  0  0  0  0  0  0
    2.5139   30.7040   -6.3458 C   0  0  0  0  0  0  0  0  0  0  0  0
    2.8086   31.6858   -7.1182 O   0  0  0  0  0  0  0  0  0  0  0  0
    2.0089   29.4628   -6.9031 C   0  0  0  0  0  0  0  0  0  0  0  0
    1.1044   29.4601   -7.9392 C   0  0  0  0  0  0  0  0  0  0  0  0
    0.6315   28.2519   -8.4600 C   0  0  0  0  0  0  0  0  0  0  0  0
    1.0648   27.0525   -7.9429 C   0  0  0  0  0  0  0  0  0  0  0  0
    0.4768   25.5323   -8.5903 Cl  0  0  0  0  0  0  0  0  0  0  0  0
    1.9682   27.0632   -6.9082 C   0  0  0  0  0  0  0  0  0  0  0  0
    2.4278   25.8273   -6.3592 C   0  0  0  0  0  0  0  0  0  0  0  0
    2.7937   24.7995   -5.9199 N   0  0  0  0  0  0  0  0  0  0  0  0
    2.4461   28.2707   -6.3817 C   0  0  0  0  0  0  0  0  0  0  0  0
    5.9100   30.9589   -5.2507 C   0  0  0  0  0  0  0  0  0  0  0  0
    7.1360   30.3831   -4.9897 C   0  0  0  0  0  0  0  0  0  0  0  0
    8.0114   30.0469   -6.0240 O   0  0  0  0  0  0  0  0  0  0  0  0
    7.5718   30.2103   -7.3520 C   0  0  0  0  0  0  0  0  0  0  0  0
    8.6843   29.7115   -8.2609 C   0  0  0  0  0  0  0  0  0  0  0  0
  1  2  1  0
  2  3  1  0
  3  4  1  0
  4  5  2  0
  5  6  1  0
  6  7  2  0
  7  8  1  0
  8  9  1  0
  8 10  1  0
 10 11  1  0
 11 12  2  0
 11 13  1  0
 13 14  2  0
 14 15  1  0
 15 16  2  0
 16 17  1  0
 16 18  1  0
 18 19  1  0
 19 20  3  0
 18 21  2  0
  7 22  1  0
 22 23  2  0
 23 24  1  0
 24 25  1  0
 25 26  1  0
 23  4  1  0
 21 13  1  0
M  END
$$$$
