
     RDKit          3D

 22 24  0  0  0  0  0  0  0  0999 V2000
   48.1227   63.7827    7.9567 C   0  0  0  0  0  0  0  0  0  0  0  0
   47.9360   63.0760    9.2854 C   0  0  0  0  0  0  0  0  0  0  0  0
   49.4116   63.1310   10.2619 Cl  0  0  0  0  0  0  0  0  0  0  0  0
   46.7843   63.6919    9.9450 C   0  0  0  0  0  0  0  0  0  0  0  0
   46.6784   65.0403   10.4467 N   0  0  0  0  0  0  0  0  0  0  0  0
   45.8310   62.7724   10.0063 C   0  0  0  0  0  0  0  0  0  0  0  0
   46.2954   61.5358    9.4071 C   0  0  0  0  0  0  0  0  0  0  0  0
   47.5280   61.6892    8.9763 C   0  0  0  0  0  0  0  0  0  0  0  0
   48.3605   60.6875    8.2830 C   0  0  0  0  0  0  0  0  0  0  0  0
   47.8320   59.4933    7.9882 N   0  0  0  0  0  0  0  0  0  0  0  0
   48.4714   58.4833    7.3782 C   0  0  0  0  0  0  0  0  0  0  0  0
   48.0453   57.2328    7.0260 N   0  0  0  0  0  0  0  0  0  0  0  0
   47.6174   55.9775    6.6724 C   0  0  0  0  0  0  0  0  0  0  0  0
   48.5765   54.8629    7.0880 C   0  0  0  0  0  0  0  0  0  0  0  0
   48.1318   53.6431    6.5718 O   0  0  0  0  0  0  0  0  0  0  0  0
   49.8326   58.7662    7.0378 C   0  0  0  0  0  0  0  0  0  0  0  0
   50.6084   57.8160    6.4211 C   0  0  0  0  0  0  0  0  0  0  0  0
   51.9271   58.0480    6.0911 C   0  0  0  0  0  0  0  0  0  0  0  0
   52.5076   59.2551    6.3756 C   0  0  0  0  0  0  0  0  0  0  0  0
   51.7071   60.2135    7.0031 C   0  0  0  0  0  0  0  0  0  0  0  0
   50.3776   59.9722    7.3329 C   0  0  0  0  0  0  0  0  0  0  0  0
   49.6129   60.9099    7.9559 N   0  0  0  0  0  0  0  0  0  0  0  0
  1  2  1  0
  2  3  1  0
  2  4  1  0
  4  5  1  0
  4  6  2  0
  6  7  1  0
  7  8  2  0
  8  9  1  0
  9 10  2  0
 10 11  1  0
 11 12  1  0
 12 13  1  0
 13 14  1  0
 14 15  1  0
 11 16  2  0
 16 17  1  0
 17 18  2  0
 18 19  1  0
 19 20  2  0
 20 21  1  0
 21 22  2  0
  8  2  1  0
 22  9  1  0
 21 16  1  0
M  END
$$$$
