
     RDKit          3D

 20 21  0  0  0  0  0  0  0  0999 V2000
   -5.6355   27.8693   11.4707 C   0  0  0  0  0  0  0  0  0  0  0  0
   -5.8017   28.1192    9.9859 C   0  0  0  0  0  0  0  0  0  0  0  0
   -4.1596   28.0730    9.2858 Cl  0  0  0  0  0  0  0  0  0  0  0  0
   -6.3537   29.4399    9.6919 C   0  0  0  0  0  0  0  0  0  0  0  0
   -5.3787   30.4754    9.5623 N   0  0  0  0  0  0  0  0  0  0  0  0
   -7.5873   29.9213    9.5125 C   0  0  0  0  0  0  0  0  0  0  0  0
   -8.8048   29.1496    9.5767 C   0  0  0  0  0  0  0  0  0  0  0  0
   -8.9963   27.8387    9.6605 C   0  0  0  0  0  0  0  0  0  0  0  0
   -7.9222   26.8941    9.7044 N   0  0  0  0  0  0  0  0  0  0  0  0
   -6.5526   26.9740    9.3497 C   0  0  0  0  0  0  0  0  0  0  0  0
   -6.3990   27.1624    7.8966 N   0  0  0  0  0  0  0  0  0  0  0  0
   -5.8714   25.7811    9.6941 N   0  0  0  0  0  0  0  0  0  0  0  0
   -6.1819   24.5688    9.7120 C   0  0  0  0  0  0  0  0  0  0  0  0
   -5.1124   23.5249    9.9891 C   0  0  0  0  0  0  0  0  0  0  0  0
   -4.6577   22.8705    8.7293 C   0  0  0  0  0  0  0  0  0  0  0  0
   -4.9588   21.5284    8.6901 O   0  0  0  0  0  0  0  0  0  0  0  0
   -7.5297   24.0061    9.4877 C   0  0  0  0  0  0  0  0  0  0  0  0
   -8.0530   22.8250    9.7370 C   0  0  0  0  0  0  0  0  0  0  0  0
   -9.3147   23.2800    9.1843 C   0  0  0  0  0  0  0  0  0  0  0  0
   -8.7834   24.4548    8.9399 C   0  0  0  0  0  0  0  0  0  0  0  0
  1  2  1  0
  2  3  1  0
  2  4  1  0
  4  5  1  0
  4  6  2  0
  6  7  1  0
  7  8  2  0
  8  9  1  0
  9 10  1  0
 10 11  1  0
 10 12  1  0
 12 13  2  3
 13 14  1  0
 14 15  1  0
 15 16  1  0
 13 17  1  0
 17 18  2  0
 18 19  1  0
 19 20  2  0
 10  2  1  0
 20 17  1  0
M  END
$$$$
