
     RDKit          3D

 19 20  0  0  0  0  0  0  0  0999 V2000
   -0.4747   -9.3433  -63.4841 C   0  0  0  0  0  0  0  0  0  0  0  0
   -0.7362   -8.7219  -62.1340 C   0  0  0  0  0  0  0  0  0  0  0  0
   -0.9656   -7.2570  -62.1870 C   0  0  0  0  0  0  0  0  0  0  0  0
   -0.7788   -6.5281  -60.9798 N   0  0  0  0  0  0  0  0  0  0  0  0
   -1.8032   -6.3557  -59.9618 C   0  0  0  0  0  0  0  0  0  0  0  0
    0.4786   -5.9191  -60.7258 C   0  0  0  0  0  0  0  0  0  0  0  0
    1.3741   -5.8633  -61.6073 O   0  0  0  0  0  0  0  0  0  0  0  0
    0.8210   -5.3155  -59.4262 C   0  0  0  0  0  0  0  0  0  0  0  0
    1.6006   -4.1826  -59.3226 C   0  0  0  0  0  0  0  0  0  0  0  0
    1.9272   -3.6140  -58.1672 N   0  0  0  0  0  0  0  0  0  0  0  0
    1.4915   -4.1450  -57.0168 C   0  0  0  0  0  0  0  0  0  0  0  0
    1.8258   -3.5607  -55.8087 C   0  0  0  0  0  0  0  0  0  0  0  0
    1.3687   -4.1195  -54.6213 C   0  0  0  0  0  0  0  0  0  0  0  0
    0.5819   -5.2519  -54.5982 C   0  0  0  0  0  0  0  0  0  0  0  0
    0.0977   -5.8406  -53.3052 C   0  0  0  0  0  0  0  0  0  0  0  0
    0.2532   -5.8282  -55.8073 C   0  0  0  0  0  0  0  0  0  0  0  0
    0.7059   -5.2772  -57.0110 C   0  0  0  0  0  0  0  0  0  0  0  0
    0.3757   -5.8563  -58.2278 C   0  0  0  0  0  0  0  0  0  0  0  0
   -0.3411   -6.8894  -58.2247 O   0  0  0  0  0  0  0  0  0  0  0  0
  1  2  1  0
  2  3  1  0
  3  4  1  0
  4  5  1  0
  4  6  1  0
  6  7  2  0
  6  8  1  0
  8  9  2  0
  9 10  1  0
 10 11  1  0
 11 12  2  0
 12 13  1  0
 13 14  2  0
 14 15  1  0
 14 16  1  0
 16 17  2  0
 17 18  1  0
 18 19  2  0
 18  8  1  0
 17 11  1  0
M  END
$$$$
