
     RDKit          3D

 24 26  0  0  0  0  0  0  0  0999 V2000
    1.3006   -2.9072  -58.5928 C   0  0  0  0  0  0  0  0  0  0  0  0
    1.1689   -3.8639  -57.4624 C   0  0  0  0  0  0  0  0  0  0  0  0
    1.3309   -3.3502  -56.2773 C   0  0  0  0  0  0  0  0  0  0  0  0
    1.2198   -4.5045  -55.0755 P   0  0  0  0  0  0  0  0  0  0  0  0
   -0.1304   -5.6994  -55.5394 C   0  0  0  0  0  0  0  0  0  0  0  0
   -0.1105   -5.9223  -56.8682 C   0  0  0  0  0  0  0  0  0  0  0  0
   -1.0864   -6.8254  -57.4475 C   0  0  0  0  0  0  0  0  0  0  0  0
   -2.0453   -7.4875  -56.5933 N   0  0  0  0  0  0  0  0  0  0  0  0
   -2.8853   -8.5341  -57.1173 C   0  0  0  0  0  0  0  0  0  0  0  0
   -2.4251   -9.8536  -56.5767 C   0  0  0  0  0  0  0  0  0  0  0  0
   -1.2699  -10.3162  -57.1878 O   0  0  0  0  0  0  0  0  0  0  0  0
   -1.1451   -7.0704  -58.7184 N   0  0  0  0  0  0  0  0  0  0  0  0
   -0.2091   -6.4291  -59.5727 C   0  0  0  0  0  0  0  0  0  0  0  0
   -0.1984   -6.6459  -60.9828 N   0  0  0  0  0  0  0  0  0  0  0  0
   -0.9958   -7.6147  -61.6332 C   0  0  0  0  0  0  0  0  0  0  0  0
   -0.6061   -8.3212  -62.7463 C   0  0  0  0  0  0  0  0  0  0  0  0
   -1.4343   -9.2634  -63.3228 C   0  0  0  0  0  0  0  0  0  0  0  0
   -2.6785   -9.5335  -62.8106 C   0  0  0  0  0  0  0  0  0  0  0  0
   -3.7624  -10.7136  -63.5012 Cl  0  0  0  0  0  0  0  0  0  0  0  0
   -3.0727   -8.8252  -61.6929 C   0  0  0  0  0  0  0  0  0  0  0  0
   -4.6474   -9.1359  -61.0076 Cl  0  0  0  0  0  0  0  0  0  0  0  0
   -2.2464   -7.8835  -61.1155 C   0  0  0  0  0  0  0  0  0  0  0  0
    0.6990   -5.6190  -59.1150 N   0  0  0  0  0  0  0  0  0  0  0  0
    0.8861   -5.2750  -57.7396 C   0  0  0  0  0  0  0  0  0  0  0  0
  1  2  1  0
  2  3  2  0
  3  4  2  0
  4  5  1  0
  5  6  2  0
  6  7  1  0
  7  8  1  0
  8  9  1  0
  9 10  1  0
 10 11  1  0
  7 12  2  0
 12 13  1  0
 13 14  1  0
 14 15  1  0
 15 16  2  0
 16 17  1  0
 17 18  2  0
 18 19  1  0
 18 20  1  0
 20 21  1  0
 20 22  2  0
 13 23  2  0
 23 24  1  0
 24  2  1  0
 24  6  1  0
 22 15  1  0
M  END
$$$$
