
     RDKit          3D

 14 13  0  0  0  0  0  0  0  0999 V2000
  149.6228  145.3846  145.2467 N   0  0  0  0  0  0  0  0  0  0  0  0
  150.9549  144.8399  145.4202 C   0  0  0  0  0  0  0  0  0  0  0  0
  151.8561  145.9770  145.8304 C   0  0  0  0  0  0  0  0  0  0  0  0
  151.3765  147.3082  145.2795 C   0  0  0  0  0  0  0  0  0  0  0  0
  152.4317  148.3282  145.6413 C   0  0  0  0  0  0  0  0  0  0  0  0
  152.1390  149.6898  145.0875 C   0  0  0  0  0  0  0  0  0  0  0  0
  153.2107  150.7091  145.3932 C   0  0  0  0  0  0  0  0  0  0  0  0
  152.9089  152.0346  144.6796 C   0  0  0  0  0  0  0  0  0  0  0  0
  153.9749  152.9950  144.9751 C   0  0  0  0  0  0  0  0  0  0  0  0
  155.3597  152.3269  145.8694 Cl  0  0  0  0  0  0  0  0  0  0  0  0
  153.9303  154.2377  144.6210 C   0  0  0  0  0  0  0  0  0  0  0  0
  154.9342  155.2530  144.9157 C   0  0  0  0  0  0  0  0  0  0  0  0
  155.0062  156.2663  143.7596 C   0  0  0  0  0  0  0  0  0  0  0  0
  153.3271  156.7020  143.3674 Cl  0  0  0  0  0  0  0  0  0  0  0  0
  1  2  1  0
  2  3  1  0
  3  4  1  0
  4  5  1  0
  5  6  1  0
  6  7  1  0
  7  8  1  0
  8  9  1  0
  9 10  1  0
  9 11  2  3
 11 12  1  0
 12 13  1  0
 13 14  1  0
M  END
$$$$
