
     RDKit          3D

 14 13  0  0  0  0  0  0  0  0999 V2000
  152.5857  152.9511  168.1436 N   0  0  0  0  0  0  0  0  0  0  0  0
  153.8331  152.2173  168.2258 C   0  0  0  0  0  0  0  0  0  0  0  0
  154.0620  151.8799  169.6775 C   0  0  0  0  0  0  0  0  0  0  0  0
  155.2995  151.0220  169.8723 C   0  0  0  0  0  0  0  0  0  0  0  0
  155.3771  150.7089  171.3490 C   0  0  0  0  0  0  0  0  0  0  0  0
  156.4896  149.7627  171.6856 C   0  0  0  0  0  0  0  0  0  0  0  0
  157.1840  150.0857  172.9873 C   0  0  0  0  0  0  0  0  0  0  0  0
  156.4336  149.4512  174.1670 C   0  0  0  0  0  0  0  0  0  0  0  0
  157.1894  149.6833  175.4003 C   0  0  0  0  0  0  0  0  0  0  0  0
  158.6828  150.6282  175.1982 Cl  0  0  0  0  0  0  0  0  0  0  0  0
  156.8153  149.2428  176.5568 C   0  0  0  0  0  0  0  0  0  0  0  0
  157.4920  149.4767  177.8268 C   0  0  0  0  0  0  0  0  0  0  0  0
  156.8433  148.6204  178.9288 C   0  0  0  0  0  0  0  0  0  0  0  0
  157.4793  146.9722  178.7249 Cl  0  0  0  0  0  0  0  0  0  0  0  0
  1  2  1  0
  2  3  1  0
  3  4  1  0
  4  5  1  0
  5  6  1  0
  6  7  1  0
  7  8  1  0
  8  9  1  0
  9 10  1  0
  9 11  2  3
 11 12  1  0
 12 13  1  0
 13 14  1  0
M  END
$$$$
