
     RDKit          3D

 22 23  0  0  0  0  0  0  0  0999 V2000
   38.8737   49.0370   24.8574 C   0  0  0  0  0  0  0  0  0  0  0  0
   39.5810   48.2213   25.9258 C   0  0  0  0  0  0  0  0  0  0  0  0
   40.8663   47.6589   25.3969 C   0  0  0  0  0  0  0  0  0  0  0  0
   40.7670   47.1800   23.9654 C   0  0  0  0  0  0  0  0  0  0  0  0
   42.0322   46.6508   23.4914 N   0  0  2  0  0  4  0  0  0  0  0  0
   43.0395   46.8678   24.4964 C   0  0  0  0  0  0  0  0  0  0  0  0
   42.3077   47.2018   22.2077 C   0  0  0  0  0  0  0  0  0  0  0  0
   41.1508   47.7103   21.4746 C   0  0  0  0  0  0  0  0  0  0  0  0
   41.0402   48.9848   20.9731 C   0  0  0  0  0  0  0  0  0  0  0  0
   42.1194   49.9705   21.1829 C   0  0  0  0  0  0  0  0  0  0  0  0
   39.9347   49.3724   20.2822 N   0  0  0  0  0  0  0  0  0  0  0  0
   38.9044   48.5488   20.0533 C   0  0  0  0  0  0  0  0  0  0  0  0
   37.7802   48.9527   19.3444 C   0  0  0  0  0  0  0  0  0  0  0  0
   36.7219   48.1125   19.1047 C   0  0  0  0  0  0  0  0  0  0  0  0
   36.7933   46.8075   19.5980 C   0  0  0  0  0  0  0  0  0  0  0  0
   35.7403   45.9492   19.3659 O   0  0  0  0  0  0  0  0  0  0  0  0
   34.4452   46.2476   19.7460 C   0  0  0  0  0  0  0  0  0  0  0  0
   33.7610   45.0601   20.3471 C   0  0  0  0  0  0  0  0  0  0  0  0
   37.9062   46.4135   20.2974 C   0  0  0  0  0  0  0  0  0  0  0  0
   38.9804   47.2647   20.5415 C   0  0  0  0  0  0  0  0  0  0  0  0
   40.0920   46.8542   21.2434 C   0  0  0  0  0  0  0  0  0  0  0  0
   40.1016   45.6556   21.6682 O   0  0  0  0  0  0  0  0  0  0  0  0
  1  2  1  0
  2  3  1  0
  3  4  1  0
  4  5  1  0
  5  6  1  1
  5  7  1  0
  7  8  1  0
  8  9  2  0
  9 10  1  0
  9 11  1  0
 11 12  1  0
 12 13  2  0
 13 14  1  0
 14 15  2  0
 15 16  1  0
 16 17  1  0
 17 18  1  0
 15 19  1  0
 19 20  2  0
 20 21  1  0
 21 22  2  0
 21  8  1  0
 20 12  1  0
M  CHG  1   5   1
M  END
$$$$
