
     RDKit          3D

 21 22  0  0  0  0  0  0  0  0999 V2000
  129.3922  136.6853  139.3438 C   0  0  0  0  0  0  0  0  0  0  0  0
  129.0910  137.5268  140.5016 N   0  0  0  0  0  0  0  0  0  0  0  0
  128.9836  138.8993  140.0450 C   0  0  0  0  0  0  0  0  0  0  0  0
  127.8945  137.1064  141.1682 C   0  0  0  0  0  0  0  0  0  0  0  0
  127.6246  137.8829  142.4133 C   0  0  0  0  0  0  0  0  0  0  0  0
  127.4162  137.1666  143.5856 C   0  0  0  0  0  0  0  0  0  0  0  0
  127.1632  137.8613  144.7573 C   0  0  0  0  0  0  0  0  0  0  0  0
  127.1100  139.2337  144.8063 C   0  0  0  0  0  0  0  0  0  0  0  0
  126.8415  139.9531  146.0648 C   0  0  0  0  0  0  0  0  0  0  0  0
  127.7864  141.0017  146.3577 N   0  0  0  0  0  0  0  0  0  0  0  0
  127.3285  141.7955  147.4392 C   0  0  0  0  0  0  0  0  0  0  0  0
  128.3486  142.5829  148.1773 C   0  0  2  0  0  0  0  0  0  0  0  0
  128.7848  141.7709  149.2576 O   0  0  0  0  0  0  0  0  0  0  0  0
  127.9256  143.8531  148.7507 C   0  0  0  0  0  0  0  0  0  0  0  0
  126.9100  144.5497  148.1160 C   0  0  0  0  0  0  0  0  0  0  0  0
  126.4455  145.7605  148.5870 C   0  0  0  0  0  0  0  0  0  0  0  0
  126.9816  146.3290  149.7209 C   0  0  0  0  0  0  0  0  0  0  0  0
  127.9909  145.6529  150.3655 C   0  0  0  0  0  0  0  0  0  0  0  0
  128.4505  144.4290  149.8771 C   0  0  0  0  0  0  0  0  0  0  0  0
  127.3173  139.9350  143.6421 C   0  0  0  0  0  0  0  0  0  0  0  0
  127.5734  139.2421  142.4544 C   0  0  0  0  0  0  0  0  0  0  0  0
  1  2  1  0
  2  3  1  0
  2  4  1  0
  4  5  1  0
  5  6  2  0
  6  7  1  0
  7  8  2  0
  8  9  1  0
  9 10  1  0
 10 11  1  0
 11 12  1  0
 12 13  1  1
 12 14  1  0
 14 15  2  0
 15 16  1  0
 16 17  2  0
 17 18  1  0
 18 19  2  0
  8 20  1  0
 20 21  2  0
 21  5  1  0
 19 14  1  0
M  END
$$$$
