
     RDKit          3D

 22 23  0  0  0  0  0  0  0  0999 V2000
   12.9921  -25.9253  -18.2248 C   0  0  0  0  0  0  0  0  0  0  0  0
   14.3500  -25.3600  -18.5077 C   0  0  0  0  0  0  0  0  0  0  0  0
   14.5083  -24.3299  -19.3188 C   0  0  0  0  0  0  0  0  0  0  0  0
   15.7144  -24.3385  -20.2137 C   0  0  0  0  0  0  0  0  0  0  0  0
   16.7394  -23.4392  -19.6244 C   0  0  0  0  0  0  0  0  0  0  0  0
   17.2807  -22.3924  -20.5097 C   0  0  0  0  0  0  0  0  0  0  0  0
   18.2859  -21.4766  -20.0058 N   0  0  0  0  0  0  0  0  0  0  0  0
   19.0141  -20.7150  -20.9912 C   0  0  0  0  0  0  0  0  0  0  0  0
   20.1992  -20.0082  -20.4206 C   0  0  0  0  0  0  0  0  0  0  0  0
   19.9771  -19.5665  -19.1264 O   0  0  0  0  0  0  0  0  0  0  0  0
   16.8636  -22.2951  -21.7156 N   0  0  0  0  0  0  0  0  0  0  0  0
   15.8882  -23.1489  -22.2777 C   0  0  0  0  0  0  0  0  0  0  0  0
   15.4383  -23.0175  -23.6302 N   0  0  0  0  0  0  0  0  0  0  0  0
   16.2017  -23.4382  -24.7480 C   0  0  0  0  0  0  0  0  0  0  0  0
   15.5596  -24.2671  -25.6715 C   0  0  0  0  0  0  0  0  0  0  0  0
   16.1941  -24.7388  -26.8017 C   0  0  0  0  0  0  0  0  0  0  0  0
   17.5037  -24.4002  -27.0579 C   0  0  0  0  0  0  0  0  0  0  0  0
   18.1901  -24.9117  -28.2825 C   0  0  0  0  0  0  0  0  0  0  0  0
   18.1431  -23.5823  -26.1502 C   0  0  0  0  0  0  0  0  0  0  0  0
   19.7949  -23.1187  -26.4155 Cl  0  0  0  0  0  0  0  0  0  0  0  0
   17.4881  -23.1145  -25.0138 C   0  0  0  0  0  0  0  0  0  0  0  0
   15.3609  -24.0909  -21.5789 N   0  0  0  0  0  0  0  0  0  0  0  0
  1  2  1  0
  2  3  2  3
  3  4  1  0
  4  5  1  0
  5  6  1  0
  6  7  1  0
  7  8  1  0
  8  9  1  0
  9 10  1  0
  6 11  2  0
 11 12  1  0
 12 13  1  0
 13 14  1  0
 14 15  2  0
 15 16  1  0
 16 17  2  0
 17 18  1  0
 17 19  1  0
 19 20  1  0
 19 21  2  0
 12 22  2  0
 22  4  1  0
 21 14  1  0
M  END
$$$$
