
     RDKit          3D

 24 25  0  0  0  0  0  0  0  0999 V2000
   19.0910  143.8184 -110.6984 C   0  0  0  0  0  0  0  0  0  0  0  0
   19.8685  145.0262 -111.0088 C   0  0  0  0  0  0  0  0  0  0  0  0
   20.1104  145.9304 -110.0769 C   0  0  0  0  0  0  0  0  0  0  0  0
   20.0951  147.1671 -110.4926 N   0  0  0  0  0  0  0  0  0  0  0  0
   18.8929  147.7757 -110.6012 N   0  0  0  0  0  0  0  0  0  0  0  0
   18.2891  148.3260 -111.5792 C   0  0  0  0  0  0  0  0  0  0  0  0
   16.9844  148.8551 -111.1982 N   0  0  0  0  0  0  0  0  0  0  0  0
   16.4450  150.0444 -111.7409 C   0  0  0  0  0  0  0  0  0  0  0  0
   15.9124  151.0005 -110.8852 C   0  0  0  0  0  0  0  0  0  0  0  0
   15.3671  152.1812 -111.3882 C   0  0  0  0  0  0  0  0  0  0  0  0
   15.3548  152.4038 -112.7420 C   0  0  0  0  0  0  0  0  0  0  0  0
   14.6696  153.8910 -113.3964 Cl  0  0  0  0  0  0  0  0  0  0  0  0
   15.8787  151.4641 -113.5913 C   0  0  0  0  0  0  0  0  0  0  0  0
   15.8542  151.7652 -115.3103 Cl  0  0  0  0  0  0  0  0  0  0  0  0
   16.4185  150.2959 -113.0988 C   0  0  0  0  0  0  0  0  0  0  0  0
   18.8008  148.4238 -112.8347 N   0  0  0  0  0  0  0  0  0  0  0  0
   19.0618  147.6958 -113.8396 C   0  0  0  0  0  0  0  0  0  0  0  0
   19.6371  148.4039 -114.9772 N   0  0  0  0  0  0  0  0  0  0  0  0
   19.9070  147.7545 -116.2331 C   0  0  0  0  0  0  0  0  0  0  0  0
   21.3579  147.8147 -116.5727 C   0  0  0  0  0  0  0  0  0  0  0  0
   21.4781  147.8674 -117.9576 O   0  0  0  0  0  0  0  0  0  0  0  0
   18.8159  146.2689 -114.0131 C   0  0  0  0  0  0  0  0  0  0  0  0
   19.3665  145.2498 -113.3924 C   0  0  0  0  0  0  0  0  0  0  0  0
   20.4010  145.2782 -112.3411 C   0  0  0  0  0  0  0  0  0  0  0  0
  1  2  1  0
  2  3  2  0
  3  4  2  0
  4  5  1  0
  5  6  2  0
  6  7  1  0
  7  8  1  0
  8  9  2  0
  9 10  1  0
 10 11  2  0
 11 12  1  0
 11 13  1  0
 13 14  1  0
 13 15  2  0
  6 16  1  0
 16 17  2  0
 17 18  1  0
 18 19  1  0
 19 20  1  0
 20 21  1  0
 17 22  1  0
 22 23  2  0
 23 24  1  0
 24  2  1  0
 15  8  1  0
M  END
$$$$
