
     RDKit          3D

 12 11  0  0  0  0  0  0  0  0999 V2000
  152.4791  155.1524  147.0840 C   0  0  0  0  0  0  0  0  0  0  0  0
  152.2276  154.1163  146.3100 C   0  0  0  0  0  0  0  0  0  0  0  0
  151.7560  152.8374  146.8341 C   0  0  0  0  0  0  0  0  0  0  0  0
  151.5150  151.8048  146.0565 C   0  0  0  0  0  0  0  0  0  0  0  0
  151.1080  150.5048  146.6173 C   0  0  0  0  0  0  0  0  0  0  0  0
  150.8918  149.5130  145.5253 C   0  0  0  0  0  0  0  0  0  0  0  0
  151.3630  149.7552  144.3849 O   0  0  0  0  0  0  0  0  0  0  0  0
  150.1655  148.3167  145.7740 N   0  0  0  0  0  0  0  0  0  0  0  0
  149.9798  147.4180  144.6484 C   0  0  0  0  0  0  0  0  0  0  0  0
  150.0734  145.9693  145.0657 C   0  0  0  0  0  0  0  0  0  0  0  0
  149.5871  145.7633  146.4855 C   0  0  0  0  0  0  0  0  0  0  0  0
  151.4829  145.6103  145.0646 N   0  0  0  0  0  0  0  0  0  0  0  0
  1  2  2  0
  2  3  1  0
  3  4  2  0
  4  5  1  0
  5  6  1  0
  6  7  2  0
  6  8  1  0
  8  9  1  0
  9 10  1  0
 10 11  1  0
 10 12  1  0
M  END
$$$$
