
     RDKit          3D

  9  8  0  0  0  0  0  0  0  0999 V2000
  127.1116  134.4936  144.4568 Cl  0  0  0  0  0  0  0  0  0  0  0  0
  127.8367  135.3308  143.1020 C   0  0  0  0  0  0  0  0  0  0  0  0
  127.9134  136.6465  142.9956 C   0  0  0  0  0  0  0  0  0  0  0  0
  128.5146  137.2517  141.7666 C   0  0  0  0  0  0  0  0  0  0  0  0
  128.6836  138.4927  141.6887 C   0  0  0  0  0  0  0  0  0  0  0  0
  128.8710  139.8683  141.6023 C   0  0  0  0  0  0  0  0  0  0  0  0
  127.7179  140.7987  142.6449 Cl  0  0  0  0  0  0  0  0  0  0  0  0
  129.2419  138.2834  140.0181 N   0  0  0  0  0  0  0  0  0  0  0  0
  127.8432  137.5164  138.8329 I   0  0  0  0  0  0  0  0  0  0  0  0
  1  2  1  0
  2  3  2  3
  3  4  1  0
  4  5  2  3
  5  6  1  0
  6  7  1  0
  5  8  1  0
  8  9  1  0
M  END
$$$$
