
     RDKit          3D

 25 26  0  0  0  0  0  0  0  0999 V2000
  127.0209  134.4040  144.2927 C   0  0  0  0  0  0  0  0  0  0  0  0
  126.2509  135.6176  143.8569 C   0  0  0  0  0  0  0  0  0  0  0  0
  127.1104  136.7884  143.9572 N   0  0  0  0  0  4  0  0  0  0  0  0
  128.1713  136.7737  142.9966 C   0  0  0  0  0  0  0  0  0  0  0  0
  128.0963  137.9241  142.0184 C   0  0  0  0  0  0  0  0  0  0  0  0
  127.6991  136.7556  145.2840 C   0  0  0  0  0  0  0  0  0  0  0  0
  127.8951  138.1454  145.8117 C   0  0  0  0  0  0  0  0  0  0  0  0
  127.9164  138.0554  147.3364 C   0  0  0  0  0  0  0  0  0  0  0  0
  126.7161  138.8159  147.9021 C   0  0  1  0  0  0  0  0  0  0  0  0
  125.9848  137.9264  148.9046 C   0  0  0  0  0  0  0  0  0  0  0  0
  127.2371  139.9921  148.5866 N   0  0  0  0  0  0  0  0  0  0  0  0
  127.0695  141.2598  147.9772 C   0  0  0  0  0  0  0  0  0  0  0  0
  126.6057  141.3501  146.6665 C   0  0  0  0  0  0  0  0  0  0  0  0
  126.4505  142.5661  146.0575 C   0  0  0  0  0  0  0  0  0  0  0  0
  126.7461  143.6663  146.7254 N   0  0  0  0  0  0  0  0  0  0  0  0
  127.1958  143.6442  147.9858 C   0  0  0  0  0  0  0  0  0  0  0  0
  127.5001  144.8011  148.6700 C   0  0  0  0  0  0  0  0  0  0  0  0
  127.9620  144.7638  149.9675 C   0  0  0  0  0  0  0  0  0  0  0  0
  128.2755  146.0437  150.6597 C   0  0  0  0  0  0  0  0  0  0  0  0
  129.5436  146.4474  150.3236 F   0  0  0  0  0  0  0  0  0  0  0  0
  127.3142  146.9783  150.2790 F   0  0  0  0  0  0  0  0  0  0  0  0
  128.2116  145.8451  152.0266 F   0  0  0  0  0  0  0  0  0  0  0  0
  128.1351  143.5681  150.6246 C   0  0  0  0  0  0  0  0  0  0  0  0
  127.8300  142.3890  149.9412 C   0  0  0  0  0  0  0  0  0  0  0  0
  127.3714  142.4260  148.6527 C   0  0  0  0  0  0  0  0  0  0  0  0
  1  2  1  0
  2  3  1  0
  3  4  1  0
  4  5  1  0
  3  6  1  0
  6  7  1  0
  7  8  1  0
  8  9  1  0
  9 10  1  1
  9 11  1  0
 11 12  1  0
 12 13  2  0
 13 14  1  0
 14 15  2  0
 15 16  1  0
 16 17  2  0
 17 18  1  0
 18 19  1  0
 19 20  1  0
 19 21  1  0
 19 22  1  0
 18 23  2  0
 23 24  1  0
 24 25  2  0
 25 12  1  0
 25 16  1  0
M  CHG  1   3   1
M  END
$$$$
