
     RDKit          3D

 25 26  0  0  0  0  0  0  0  0999 V2000
  128.4039  132.3250   79.3309 C   0  0  0  0  0  0  0  0  0  0  0  0
  126.9967  132.2810   79.9021 C   0  0  0  0  0  0  0  0  0  0  0  0
  126.3292  130.9991   79.3464 C   0  0  0  0  0  0  0  0  0  0  0  0
  127.0555  130.6825   78.0913 C   0  0  0  0  0  0  0  0  0  0  0  0
  126.9776  131.8209   77.0948 C   0  0  0  0  0  0  0  0  0  0  0  0
  127.5598  133.0056   77.4512 C   0  0  0  0  0  0  0  0  0  0  0  0
  127.5398  134.0595   76.5697 C   0  0  0  0  0  0  0  0  0  0  0  0
  126.9429  133.9184   75.3487 C   0  0  0  0  0  0  0  0  0  0  0  0
  126.3594  132.7272   74.9949 C   0  0  0  0  0  0  0  0  0  0  0  0
  126.3516  131.6407   75.8465 C   0  0  0  0  0  0  0  0  0  0  0  0
  125.7838  130.4572   75.6154 N   0  0  0  0  0  0  0  0  0  0  0  0
  125.1601  129.4466   75.5043 C   0  0  0  0  0  0  0  0  0  0  0  0
  125.7169  128.3998   74.6465 N   0  0  0  0  0  0  0  0  0  0  0  0
  126.6190  128.7498   73.5699 C   0  0  0  0  0  0  0  0  0  0  0  0
  126.8218  127.5205   72.7191 C   0  0  0  0  0  0  0  0  0  0  0  0
  127.5617  126.4314   73.4521 C   0  0  0  0  0  0  0  0  0  0  0  0
  128.7455  126.9614   74.1804 C   0  0  0  0  0  0  0  0  0  0  0  0
  128.8783  127.1217   75.3993 N   0  0  0  0  0  0  0  0  0  0  0  0
  128.1929  126.9567   76.5664 C   0  0  0  0  0  0  0  0  0  0  0  0
  127.6959  128.0032   77.2076 C   0  0  0  0  0  0  0  0  0  0  0  0
  128.4558  128.6632   77.9714 N   0  0  0  0  0  0  0  0  0  0  0  0
  128.3297  130.0717   78.1811 N   0  0  0  0  0  0  0  0  0  0  0  0
  129.5881  130.7123   78.4941 C   0  0  0  0  0  0  0  0  0  0  0  0
  130.4848  129.7404   79.1943 C   0  0  0  0  0  0  0  0  0  0  0  0
  129.9374  129.3400   80.4271 O   0  0  0  0  0  0  0  0  0  0  0  0
  1  2  1  0
  2  3  1  0
  3  4  1  0
  4  5  1  0
  5  6  2  0
  6  7  1  0
  7  8  2  0
  8  9  1  0
  9 10  2  0
 10 11  1  0
 11 12  2  0
 12 13  1  0
 13 14  1  0
 14 15  1  0
 15 16  1  0
 16 17  1  0
 17 18  2  0
 18 19  1  0
 19 20  2  0
 20 21  2  0
 21 22  1  0
 22 23  1  0
 23 24  1  0
 24 25  1  0
 22  4  1  0
 10  5  1  0
M  END
$$$$
