
     RDKit          3D

 25 26  0  0  0  0  0  0  0  0999 V2000
  127.7528  140.6633  148.6327 C   0  0  0  0  0  0  0  0  0  0  0  0
  128.4115  141.8025  147.8732 C   0  0  0  0  0  0  0  0  0  0  0  0
  129.2923  142.5674  148.8914 C   0  0  0  0  0  0  0  0  0  0  0  0
  128.3462  143.1802  149.8570 C   0  0  0  0  0  0  0  0  0  0  0  0
  127.3698  144.1136  149.1714 C   0  0  0  0  0  0  0  0  0  0  0  0
  126.5086  143.5620  148.2639 C   0  0  0  0  0  0  0  0  0  0  0  0
  125.5853  144.3631  147.6362 C   0  0  0  0  0  0  0  0  0  0  0  0
  125.5323  145.6984  147.9214 C   0  0  0  0  0  0  0  0  0  0  0  0
  126.3990  146.2483  148.8331 C   0  0  0  0  0  0  0  0  0  0  0  0
  127.3453  145.4854  149.4878 C   0  0  0  0  0  0  0  0  0  0  0  0
  128.2528  145.9255  150.3591 N   0  0  0  0  0  0  0  0  0  0  0  0
  129.1688  146.3077  151.0207 C   0  0  0  0  0  0  0  0  0  0  0  0
  128.8983  146.6445  152.4188 N   0  0  0  0  0  0  0  0  0  0  0  0
  127.5684  147.0499  152.8216 C   0  0  0  0  0  0  0  0  0  0  0  0
  127.6520  147.5684  154.2360 C   0  0  0  0  0  0  0  0  0  0  0  0
  127.9992  146.4850  155.2243 C   0  0  0  0  0  0  0  0  0  0  0  0
  127.2005  145.2513  154.9947 C   0  0  0  0  0  0  0  0  0  0  0  0
  127.5817  144.1785  154.5118 N   0  0  0  0  0  0  0  0  0  0  0  0
  128.7013  143.5877  154.0054 C   0  0  0  0  0  0  0  0  0  0  0  0
  128.8289  143.3966  152.7013 C   0  0  0  0  0  0  0  0  0  0  0  0
  128.2904  142.3783  152.1822 N   0  0  0  0  0  0  0  0  0  0  0  0
  127.7659  142.3573  150.8525 N   0  0  0  0  0  0  0  0  0  0  0  0
  126.6664  141.4315  150.6922 C   0  0  0  0  0  0  0  0  0  0  0  0
  126.4995  140.6297  151.9445 C   0  0  0  0  0  0  0  0  0  0  0  0
  125.4310  141.1149  152.7209 O   0  0  0  0  0  0  0  0  0  0  0  0
  1  2  1  0
  2  3  1  0
  3  4  1  0
  4  5  1  0
  5  6  2  0
  6  7  1  0
  7  8  2  0
  8  9  1  0
  9 10  2  0
 10 11  1  0
 11 12  2  0
 12 13  1  0
 13 14  1  0
 14 15  1  0
 15 16  1  0
 16 17  1  0
 17 18  2  0
 18 19  1  0
 19 20  2  0
 20 21  2  0
 21 22  1  0
 22 23  1  0
 23 24  1  0
 24 25  1  0
 22  4  1  0
 10  5  1  0
M  END
$$$$
