
     RDKit          3D

 24 26  0  0  0  0  0  0  0  0999 V2000
   -4.7196    5.5492  -35.7233 C   0  0  0  0  0  0  0  0  0  0  0  0
   -3.5980    5.0568  -35.0183 O   0  0  0  0  0  0  0  0  0  0  0  0
   -2.4025    5.7489  -35.1220 C   0  0  0  0  0  0  0  0  0  0  0  0
   -2.3409    7.1078  -35.3226 C   0  0  0  0  0  0  0  0  0  0  0  0
   -1.1404    7.7794  -35.4233 C   0  0  0  0  0  0  0  0  0  0  0  0
   -1.0085    9.1324  -35.6231 O   0  0  0  0  0  0  0  0  0  0  0  0
    0.0023    7.0291  -35.3140 C   0  0  0  0  0  0  0  0  0  0  0  0
    1.2718    7.5607  -35.3941 C   0  0  0  0  0  0  0  0  0  0  0  0
    1.4168    8.7994  -35.5771 O   0  0  0  0  0  0  0  0  0  0  0  0
    2.3564    6.7204  -35.2715 C   0  0  0  0  0  0  0  0  0  0  0  0
    3.5844    7.3125  -35.3605 O   0  0  0  0  0  0  0  0  0  0  0  0
    2.2884    5.3812  -35.0738 C   0  0  0  0  0  0  0  0  0  0  0  0
    3.3674    4.4260  -34.9342 C   0  0  0  0  0  0  0  0  0  0  0  0
    4.6616    4.8763  -35.0420 C   0  0  0  0  0  0  0  0  0  0  0  0
    5.7707    4.0632  -34.9277 C   0  0  0  0  0  0  0  0  0  0  0  0
    5.6226    2.7143  -34.6916 C   0  0  0  0  0  0  0  0  0  0  0  0
    6.7131    1.8807  -34.5733 O   0  0  0  0  0  0  0  0  0  0  0  0
    4.3537    2.2287  -34.5783 C   0  0  0  0  0  0  0  0  0  0  0  0
    4.1704    0.8743  -34.3405 O   0  0  0  0  0  0  0  0  0  0  0  0
    2.8685    0.3096  -34.2108 C   0  0  0  0  0  0  0  0  0  0  0  0
    3.2922    3.0768  -34.6998 C   0  0  0  0  0  0  0  0  0  0  0  0
    1.0621    4.9105  -35.0027 O   0  0  0  0  0  0  0  0  0  0  0  0
   -0.0022    5.6672  -35.1130 C   0  0  0  0  0  0  0  0  0  0  0  0
   -1.2348    5.0300  -35.0174 C   0  0  0  0  0  0  0  0  0  0  0  0
  1  2  1  0
  2  3  1  0
  3  4  2  0
  4  5  1  0
  5  6  1  0
  5  7  2  0
  7  8  1  0
  8  9  2  0
  8 10  1  0
 10 11  1  0
 10 12  2  0
 12 13  1  0
 13 14  2  0
 14 15  1  0
 15 16  2  0
 16 17  1  0
 16 18  1  0
 18 19  1  0
 19 20  1  0
 18 21  2  0
 12 22  1  0
 22 23  1  0
 23 24  2  0
 24  3  1  0
 23  7  1  0
 21 13  1  0
M  END
$$$$
