
     RDKit          3D

 21 22  0  0  0  0  0  0  0  0999 V2000
    2.0516   25.7039   -7.7053 C   0  0  0  0  0  0  0  0  0  0  0  0
    1.2523   25.2552   -8.6513 C   0  0  0  0  0  0  0  0  0  0  0  0
    1.5815   23.7113   -9.4461 Cl  0  0  0  0  0  0  0  0  0  0  0  0
    0.0600   26.0427   -9.0642 C   0  0  0  0  0  0  0  0  0  0  0  0
    0.3665   27.4746   -8.7975 C   0  0  0  0  0  0  0  0  0  0  0  0
    0.4388   27.9745   -7.5783 C   0  0  0  0  0  0  0  0  0  0  0  0
    0.3391   29.3811   -7.4368 N   0  0  0  0  0  0  0  0  0  0  0  0
    1.3844   30.0297   -6.7043 C   0  0  0  0  0  0  0  0  0  0  0  0
    2.4223   29.3464   -6.2172 N   0  0  0  0  0  0  0  0  0  0  0  0
    3.4513   29.8847   -5.5143 C   0  0  0  0  0  0  0  0  0  0  0  0
    4.5123   29.0513   -5.0408 N   0  0  0  0  0  0  0  0  0  0  0  0
    4.4707   27.6114   -5.2208 C   0  0  0  0  0  0  0  0  0  0  0  0
    5.4074   27.2571   -6.3502 C   0  0  0  0  0  0  0  0  0  0  0  0
    4.8391   27.4958   -7.5938 O   0  0  0  0  0  0  0  0  0  0  0  0
    3.4235   31.2407   -5.2852 C   0  0  0  0  0  0  0  0  0  0  0  0
    4.4284   31.8639   -4.5811 C   0  0  0  0  0  0  0  0  0  0  0  0
    4.3498   33.2301   -4.3801 C   0  0  0  0  0  0  0  0  0  0  0  0
    3.2816   33.9329   -4.8815 C   0  0  0  0  0  0  0  0  0  0  0  0
    2.2770   33.3073   -5.5858 C   0  0  0  0  0  0  0  0  0  0  0  0
    2.3317   31.9507   -5.7992 C   0  0  0  0  0  0  0  0  0  0  0  0
    1.3367   31.3708   -6.4896 N   0  0  0  0  0  0  0  0  0  0  0  0
  1  2  2  0
  2  3  1  0
  2  4  1  0
  4  5  1  0
  5  6  2  3
  6  7  1  0
  7  8  1  0
  8  9  2  0
  9 10  1  0
 10 11  1  0
 11 12  1  0
 12 13  1  0
 13 14  1  0
 10 15  2  0
 15 16  1  0
 16 17  2  0
 17 18  1  0
 18 19  2  0
 19 20  1  0
 20 21  2  0
 21  8  1  0
 20 15  1  0
M  END
$$$$
