
     RDKit          3D

 29 32  0  0  0  0  0  0  0  0999 V2000
  145.9000  151.5029  161.9766 C   0  0  0  0  0  0  0  0  0  0  0  0
  145.5521  151.6820  160.6317 O   0  0  0  0  0  0  0  0  0  0  0  0
  146.2676  152.5526  159.8113 C   0  0  0  0  0  0  0  0  0  0  0  0
  147.6374  152.4854  159.7598 C   0  0  0  0  0  0  0  0  0  0  0  0
  148.3350  153.3493  158.9466 C   0  0  0  0  0  0  0  0  0  0  0  0
  147.6844  154.3033  158.1632 C   0  0  0  0  0  0  0  0  0  0  0  0
  148.4221  155.1636  157.3503 N   0  0  0  0  0  0  0  0  0  0  0  0
  148.6764  154.8342  155.9980 C   0  0  0  0  0  0  0  0  0  0  0  0
  148.2244  153.7303  155.5607 O   0  0  0  0  0  0  0  0  0  0  0  0
  149.4012  155.6455  155.0865 N   0  0  0  0  0  0  0  0  0  0  0  0
  149.5791  155.1668  153.7208 C   0  0  0  0  0  0  0  0  0  0  0  0
  151.0003  154.9070  153.4139 C   0  0  0  0  0  0  0  0  0  0  0  0
  151.8426  154.5815  154.4554 C   0  0  0  0  0  0  0  0  0  0  0  0
  153.1869  154.3179  154.2917 C   0  0  0  0  0  0  0  0  0  0  0  0
  153.7131  154.3824  153.0316 C   0  0  0  0  0  0  0  0  0  0  0  0
  152.8933  154.7055  151.9730 C   0  0  0  0  0  0  0  0  0  0  0  0
  151.5381  154.9685  152.1573 C   0  0  0  0  0  0  0  0  0  0  0  0
  150.7460  155.2813  151.1303 F   0  0  0  0  0  0  0  0  0  0  0  0
  149.9567  156.9036  155.4583 C   0  0  0  0  0  0  0  0  0  0  0  0
  150.6380  157.6398  154.5110 C   0  0  0  0  0  0  0  0  0  0  0  0
  151.1904  158.8619  154.7953 C   0  0  0  0  0  0  0  0  0  0  0  0
  151.0961  159.4335  156.0597 C   0  0  0  0  0  0  0  0  0  0  0  0
  150.4189  158.7029  157.0026 C   0  0  0  0  0  0  0  0  0  0  0  0
  149.8655  157.4711  156.7054 C   0  0  0  0  0  0  0  0  0  0  0  0
  149.0310  156.6326  157.9782 S   0  0  0  0  0  6  0  0  0  0  0  0
  147.9172  157.4954  158.5060 O   0  0  0  0  0  0  0  0  0  0  0  0
  150.0164  156.4053  159.0957 O   0  0  0  0  0  0  0  0  0  0  0  0
  146.3046  154.3368  158.2451 C   0  0  0  0  0  0  0  0  0  0  0  0
  145.5860  153.4808  159.0530 C   0  0  0  0  0  0  0  0  0  0  0  0
  1  2  1  0
  2  3  1  0
  3  4  2  0
  4  5  1  0
  5  6  2  0
  6  7  1  0
  7  8  1  0
  8  9  2  0
  8 10  1  0
 10 11  1  0
 11 12  1  0
 12 13  2  0
 13 14  1  0
 14 15  2  0
 15 16  1  0
 16 17  2  0
 17 18  1  0
 10 19  1  0
 19 20  2  0
 20 21  1  0
 21 22  2  0
 22 23  1  0
 23 24  2  0
 24 25  1  0
 25 26  2  0
 25 27  2  0
  6 28  1  0
 28 29  2  0
 29  3  1  0
 25  7  1  0
 17 12  1  0
 24 19  1  0
M  END
$$$$
