
     RDKit          3D

 29 31  0  0  0  0  0  0  0  0999 V2000
  132.2418  140.5548  153.4950 C   0  0  0  0  0  0  0  0  0  0  0  0
  130.7769  140.2898  153.8673 C   0  0  0  0  0  0  0  0  0  0  0  0
  130.0563  141.4233  153.4190 O   0  0  0  0  0  0  0  0  0  0  0  0
  129.6012  141.5722  152.1168 C   0  0  0  0  0  0  0  0  0  0  0  0
  129.8723  140.6347  151.3286 O   0  0  0  0  0  0  0  0  0  0  0  0
  128.8540  142.7362  151.6732 C   0  0  0  0  0  0  0  0  0  0  0  0
  128.5556  143.7900  152.5222 C   0  0  0  0  0  0  0  0  0  0  0  0
  127.8682  144.8715  152.1874 N   0  0  0  0  0  0  0  0  0  0  0  0
  127.4115  144.9817  150.9296 C   0  0  0  0  0  0  0  0  0  0  0  0
  126.6827  146.1136  150.5505 C   0  0  0  0  0  0  0  0  0  0  0  0
  126.4686  147.0830  151.5240 O   0  0  0  0  0  0  0  0  0  0  0  0
  125.6058  148.1510  151.2573 C   0  0  0  0  0  0  0  0  0  0  0  0
  126.2028  146.2503  149.2645 C   0  0  0  0  0  0  0  0  0  0  0  0
  126.4561  145.2506  148.3638 C   0  0  0  0  0  0  0  0  0  0  0  0
  127.1754  144.1288  148.7301 C   0  0  0  0  0  0  0  0  0  0  0  0
  127.6610  143.9808  150.0150 C   0  0  0  0  0  0  0  0  0  0  0  0
  128.3898  142.8413  150.3809 C   0  0  0  0  0  0  0  0  0  0  0  0
  128.6281  141.8595  149.4013 N   0  0  0  0  0  0  0  0  0  0  0  0
  128.5791  142.1460  147.9731 C   0  0  0  0  0  0  0  0  0  0  0  0
  128.2034  140.9419  147.1958 C   0  0  0  0  0  0  0  0  0  0  0  0
  127.9308  139.7397  147.8057 C   0  0  0  0  0  0  0  0  0  0  0  0
  127.5770  138.6075  147.0674 C   0  0  0  0  0  0  0  0  0  0  0  0
  127.4938  138.6781  145.6916 C   0  0  0  0  0  0  0  0  0  0  0  0
  127.1321  137.5214  144.9347 N   0  0  0  0  0  0  0  0  0  0  0  0
  127.6001  137.3635  143.5839 C   0  0  0  0  0  0  0  0  0  0  0  0
  127.2617  136.2608  142.7759 N   0  0  0  0  0  0  0  0  0  0  0  0
  128.3525  138.2967  143.1530 O   0  0  0  0  0  0  0  0  0  0  0  0
  127.7635  139.8693  145.0829 C   0  0  0  0  0  0  0  0  0  0  0  0
  128.1124  140.9854  145.8123 C   0  0  0  0  0  0  0  0  0  0  0  0
  1  2  1  0
  2  3  1  0
  3  4  1  0
  4  5  2  0
  4  6  1  0
  6  7  2  0
  7  8  1  0
  8  9  2  0
  9 10  1  0
 10 11  1  0
 11 12  1  0
 10 13  2  0
 13 14  1  0
 14 15  2  0
 15 16  1  0
 16 17  2  0
 17 18  1  0
 18 19  1  0
 19 20  1  0
 20 21  2  0
 21 22  1  0
 22 23  2  0
 23 24  1  0
 24 25  1  0
 25 26  1  0
 25 27  2  0
 23 28  1  0
 28 29  2  0
 17  6  1  0
 29 20  1  0
 16  9  1  0
M  END
$$$$
