
     RDKit          3D

 19 21  0  0  0  0  0  0  0  0999 V2000
    4.4044   26.1820   -5.3825 C   0  0  0  0  0  0  0  0  0  0  0  0
    3.2738   26.5330   -6.2723 C   0  0  0  0  0  0  0  0  0  0  0  0
    2.7355   27.8076   -6.2962 C   0  0  0  0  0  0  0  0  0  0  0  0
    1.6921   28.1380   -7.1276 C   0  0  0  0  0  0  0  0  0  0  0  0
    1.1284   29.4354   -7.1167 N   0  0  0  0  0  0  0  0  0  0  0  0
    1.6405   30.4478   -6.2806 C   0  0  0  0  0  0  0  0  0  0  0  0
    1.8911   31.7483   -6.7509 C   0  0  0  0  0  0  0  0  0  0  0  0
    2.3609   32.7379   -5.9200 C   0  0  0  0  0  0  0  0  0  0  0  0
    2.5970   32.4493   -4.5722 C   0  0  0  0  0  0  0  0  0  0  0  0
    3.1019   33.4857   -3.6388 C   0  0  0  0  0  0  0  0  0  0  0  0
    2.3576   31.1867   -4.0983 C   0  0  0  0  0  0  0  0  0  0  0  0
    2.6568   30.7655   -2.2692 Br  0  0  0  0  0  0  0  0  0  0  0  0
    1.8808   30.1902   -4.9538 C   0  0  0  0  0  0  0  0  0  0  0  0
    1.2007   27.1653   -7.9338 N   0  0  0  0  0  0  0  0  0  0  0  0
    0.2142   27.1720   -8.8291 N   0  0  0  0  0  0  0  0  0  0  0  0
    0.0670   25.9651   -9.4032 C   0  0  0  0  0  0  0  0  0  0  0  0
    0.9983   25.1772   -8.8425 N   0  0  0  0  0  0  0  0  0  0  0  0
    1.7012   25.9201   -7.9333 C   0  0  0  0  0  0  0  0  0  0  0  0
    2.7186   25.6264   -7.1125 N   0  0  0  0  0  0  0  0  0  0  0  0
  1  2  1  0
  2  3  1  0
  3  4  2  0
  4  5  1  0
  5  6  1  0
  6  7  2  0
  7  8  1  0
  8  9  2  0
  9 10  1  0
  9 11  1  0
 11 12  1  0
 11 13  2  0
  4 14  1  0
 14 15  1  0
 15 16  2  0
 16 17  1  0
 17 18  2  0
 18 19  1  0
 19  2  2  0
 13  6  1  0
 18 14  1  0
M  END
$$$$
