
     RDKit          3D

 19 20  0  0  0  0  0  0  0  0999 V2000
   -9.6573  -12.5014   -3.4059 O   0  0  0  0  0  0  0  0  0  0  0  0
   -9.8009  -13.5783   -2.8247 C   0  0  0  0  0  0  0  0  0  0  0  0
   -8.5918  -14.2635   -2.4216 N   0  0  0  0  0  0  0  0  0  0  0  0
   -7.4165  -13.5286   -2.1007 C   0  0  0  0  0  0  0  0  0  0  0  0
   -7.3815  -12.2062   -2.5474 C   0  0  0  0  0  0  0  0  0  0  0  0
   -6.2834  -11.4192   -2.2828 C   0  0  0  0  0  0  0  0  0  0  0  0
   -5.2225  -11.9241   -1.5833 C   0  0  0  0  0  0  0  0  0  0  0  0
   -3.8186  -10.9212   -1.2439 Cl  0  0  0  0  0  0  0  0  0  0  0  0
   -5.2414  -13.2388   -1.1314 C   0  0  0  0  0  0  0  0  0  0  0  0
   -6.3585  -14.0164   -1.4086 C   0  0  0  0  0  0  0  0  0  0  0  0
  -11.0764  -14.1200   -2.5630 N   0  0  0  0  0  0  0  0  0  0  0  0
  -12.2845  -13.7290   -3.1978 C   0  0  0  0  0  0  0  0  0  0  0  0
  -13.5380  -14.1841   -2.8936 C   0  0  0  0  0  0  0  0  0  0  0  0
  -14.6662  -13.7207   -3.5963 C   0  0  0  0  0  0  0  0  0  0  0  0
  -14.5771  -12.8011   -4.6104 C   0  0  0  0  0  0  0  0  0  0  0  0
  -15.6759  -12.3681   -5.2743 F   0  0  0  0  0  0  0  0  0  0  0  0
  -13.3190  -12.3396   -4.9211 C   0  0  0  0  0  0  0  0  0  0  0  0
  -13.2407  -11.4332   -5.9223 F   0  0  0  0  0  0  0  0  0  0  0  0
  -12.2232  -12.7903   -4.2378 C   0  0  0  0  0  0  0  0  0  0  0  0
  1  2  2  0
  2  3  1  0
  3  4  1  0
  4  5  2  0
  5  6  1  0
  6  7  2  0
  7  8  1  0
  7  9  1  0
  9 10  2  0
  2 11  1  0
 11 12  1  0
 12 13  2  0
 13 14  1  0
 14 15  2  0
 15 16  1  0
 15 17  1  0
 17 18  1  0
 17 19  2  0
 10  4  1  0
 19 12  1  0
M  END
$$$$
