
     RDKit          3D

 20 20  0  0  0  0  0  0  0  0999 V2000
  129.4133  136.0293  140.8817 C   0  0  0  0  0  0  0  0  0  0  0  0
  128.3522  137.0443  140.5357 C   0  0  0  0  0  0  0  0  0  0  0  0
  129.0448  138.2842  140.0192 C   0  0  0  0  0  0  0  0  0  0  0  0
  127.5747  136.5157  139.5142 O   0  0  0  0  0  0  0  0  0  0  0  0
  127.4292  137.3381  141.6955 C   0  0  0  0  0  0  0  0  0  0  0  0
  127.9763  138.3485  142.6408 C   0  0  0  0  0  0  0  0  0  0  0  0
  128.1235  137.9247  143.9422 O   0  0  0  0  0  0  0  0  0  0  0  0
  127.0784  139.5758  142.6324 C   0  0  0  0  0  0  0  0  0  0  0  0
  127.5849  140.6324  143.4410 N   0  0  0  0  0  0  0  0  0  0  0  0
  126.6807  141.7484  143.5211 C   0  0  0  0  0  0  0  0  0  0  0  0
  127.1750  142.9167  144.3024 C   0  0  0  0  0  0  0  0  0  0  0  0
  127.3225  142.6463  145.6474 O   0  0  0  0  0  0  0  0  0  0  0  0
  127.5070  143.4372  146.7321 C   0  0  0  0  0  0  0  0  0  0  0  0
  127.3979  144.8007  146.7320 C   0  0  0  0  0  0  0  0  0  0  0  0
  127.6077  145.5435  147.8982 C   0  0  0  0  0  0  0  0  0  0  0  0
  127.9298  144.8946  149.0641 C   0  0  0  0  0  0  0  0  0  0  0  0
  128.1974  145.7989  150.5335 Cl  0  0  0  0  0  0  0  0  0  0  0  0
  128.0459  143.5195  149.0860 C   0  0  0  0  0  0  0  0  0  0  0  0
  127.8385  142.8079  147.9438 C   0  0  0  0  0  0  0  0  0  0  0  0
  127.9851  141.0668  147.9682 Cl  0  0  0  0  0  0  0  0  0  0  0  0
  1  2  1  0
  2  3  1  0
  2  4  1  0
  2  5  1  0
  5  6  1  0
  6  7  1  0
  6  8  1  0
  8  9  1  0
  9 10  1  0
 10 11  1  0
 11 12  1  0
 12 13  1  0
 13 14  2  0
 14 15  1  0
 15 16  2  0
 16 17  1  0
 16 18  1  0
 18 19  2  0
 19 20  1  0
 19 13  1  0
M  END
$$$$
