
     RDKit          3D

 37 42  0  0  0  0  0  0  0  0999 V2000
   42.4163   20.9477   27.4309 C   0  0  0  0  0  0  0  0  0  0  0  0
   41.6148   22.0574   27.1050 O   0  0  0  0  0  0  0  0  0  0  0  0
   40.2457   21.9496   26.9163 C   0  0  0  0  0  0  0  0  0  0  0  0
   39.4936   23.0616   26.6125 C   0  0  0  0  0  0  0  0  0  0  0  0
   38.1149   22.9737   26.4190 C   0  0  0  0  0  0  0  0  0  0  0  0
   37.4663   21.7768   26.5247 C   0  0  0  0  0  0  0  0  0  0  0  0
   36.0311   21.5664   26.3215 C   0  0  0  0  0  0  0  0  0  0  0  0
   35.5371   21.5443   25.0096 C   0  0  0  0  0  0  0  0  0  0  0  0
   34.2210   21.3747   25.1040 N   0  0  0  0  0  0  0  0  0  0  0  0
   33.0654   21.2537   24.4384 C   0  0  0  0  0  0  0  0  0  0  0  0
   32.8453   21.2691   22.9819 C   0  0  0  0  0  0  0  0  0  0  0  0
   33.5847   20.5089   22.3090 O   0  0  0  0  0  0  0  0  0  0  0  0
   31.9032   22.0424   22.3044 N   0  0  0  0  0  0  0  0  0  0  0  0
   31.7313   22.1225   20.9041 C   0  0  0  0  0  0  0  0  0  0  0  0
   30.9485   21.3236   20.1281 C   0  0  0  0  0  0  0  0  0  0  0  0
   30.8549   21.4976   18.7385 C   0  0  0  0  0  0  0  0  0  0  0  0
   31.5499   22.4857   18.0858 C   0  0  0  0  0  0  0  0  0  0  0  0
   31.4678   22.7442   16.3574 Cl  0  0  0  0  0  0  0  0  0  0  0  0
   32.3452   23.3017   18.8533 C   0  0  0  0  0  0  0  0  0  0  0  0
   32.4264   23.1201   20.2068 C   0  0  0  0  0  0  0  0  0  0  0  0
   32.0124   21.0977   25.3559 C   0  0  0  0  0  0  0  0  0  0  0  0
   30.5976   20.9333   25.1338 C   0  0  0  0  0  0  0  0  0  0  0  0
   29.7141   21.9598   25.4628 C   0  0  0  0  0  0  0  0  0  0  0  0
   28.3527   21.8405   25.2652 C   0  0  0  0  0  0  0  0  0  0  0  0
   27.8752   20.6638   24.7260 C   0  0  0  0  0  0  0  0  0  0  0  0
   26.1517   20.4456   24.4480 Cl  0  0  0  0  0  0  0  0  0  0  0  0
   28.7069   19.6102   24.3801 C   0  0  0  0  0  0  0  0  0  0  0  0
   30.0540   19.7825   24.5981 C   0  0  0  0  0  0  0  0  0  0  0  0
   32.5804   21.1306   26.5680 C   0  0  0  0  0  0  0  0  0  0  0  0
   33.9525   21.3007   26.4213 C   0  0  0  0  0  0  0  0  0  0  0  0
   35.0117   21.4102   27.1948 N   0  0  0  0  0  0  0  0  0  0  0  0
   35.4082   21.4139   28.6062 C   0  0  0  0  0  0  0  0  0  0  0  0
   34.1936   21.5176   29.5697 C   0  0  0  0  0  0  0  0  0  0  0  0
   33.0307   21.2708   28.8790 C   0  0  0  0  0  0  0  0  0  0  0  0
   31.9511   21.0447   27.9531 C   0  0  0  0  0  0  0  0  0  0  0  0
   38.2228   20.6392   26.8339 C   0  0  0  0  0  0  0  0  0  0  0  0
   39.5820   20.7388   27.0229 C   0  0  0  0  0  0  0  0  0  0  0  0
  1  2  1  0
  2  3  1  0
  3  4  2  0
  4  5  1  0
  5  6  2  0
  6  7  1  0
  7  8  2  0
  8  9  1  0
  9 10  1  0
 10 11  1  0
 11 12  2  0
 11 13  1  0
 13 14  1  0
 14 15  2  0
 15 16  1  0
 16 17  2  0
 17 18  1  0
 17 19  1  0
 19 20  2  0
 10 21  2  0
 21 22  1  0
 22 23  2  0
 23 24  1  0
 24 25  2  0
 25 26  1  0
 25 27  1  0
 27 28  2  0
 21 29  1  0
 29 30  2  0
 30 31  1  0
 31 32  1  0
 32 33  1  0
 33 34  1  0
 34 35  1  0
  6 36  1  0
 36 37  2  0
 37  3  1  0
 31  7  1  0
 30  9  1  0
 20 14  1  0
 28 22  1  0
 35 29  1  0
M  END
$$$$
