
     RDKit          3D

 21 23  0  0  0  0  0  0  0  0999 V2000
  143.4901  166.8809  152.2835 C   0  0  0  0  0  0  0  0  0  0  0  0
  143.3331  167.6810  151.2359 C   0  0  0  0  0  0  0  0  0  0  0  0
  144.5538  167.4580  150.4611 O   0  0  0  0  0  0  0  0  0  0  0  0
  145.3118  168.3324  149.5714 C   0  0  0  0  0  0  0  0  0  0  0  0
  144.2925  169.3024  148.9992 C   0  0  0  0  0  0  0  0  0  0  0  0
  143.6654  168.6828  148.0799 N   0  0  0  0  0  0  0  0  0  0  0  0
  142.6219  169.0245  147.1993 C   0  0  0  0  0  0  0  0  0  0  0  0
  141.8550  170.1064  147.8046 N   0  0  0  0  0  0  0  0  0  0  0  0
  140.5697  170.0056  148.4280 C   0  0  0  0  0  0  0  0  0  0  0  0
  139.6329  170.8982  147.8469 C   0  0  0  0  0  0  0  0  0  0  0  0
  138.3209  170.9482  148.2453 C   0  0  0  0  0  0  0  0  0  0  0  0
  137.1851  172.0754  147.5069 Cl  0  0  0  0  0  0  0  0  0  0  0  0
  137.9102  170.1125  149.2292 C   0  0  0  0  0  0  0  0  0  0  0  0
  136.2231  170.1786  149.7343 Cl  0  0  0  0  0  0  0  0  0  0  0  0
  138.8125  169.2538  149.7912 C   0  0  0  0  0  0  0  0  0  0  0  0
  140.1784  169.1689  149.4148 C   0  0  0  0  0  0  0  0  0  0  0  0
  141.0126  168.2506  150.1896 N   0  0  0  0  0  0  0  0  0  0  0  0
  142.1922  168.5800  150.9370 C   0  0  0  0  0  0  0  0  0  0  0  0
  142.3011  169.9217  151.2970 C   0  0  0  0  0  0  0  0  0  0  0  0
  143.0740  170.9564  150.5021 C   0  0  0  0  0  0  0  0  0  0  0  0
  143.9466  170.6593  149.4676 C   0  0  0  0  0  0  0  0  0  0  0  0
  1  2  2  0
  2  3  1  0
  3  4  1  0
  4  5  1  0
  5  6  2  0
  6  7  1  0
  7  8  1  0
  8  9  1  0
  9 10  2  0
 10 11  1  0
 11 12  1  0
 11 13  2  0
 13 14  1  0
 13 15  1  0
 15 16  2  0
 16 17  1  0
 17 18  1  0
 18 19  2  0
 19 20  1  0
 20 21  2  0
 18  2  1  0
 21  5  1  0
 16  9  1  0
M  END
$$$$
