
     RDKit          3D

 18 19  0  0  0  0  0  0  0  0999 V2000
  157.6870  151.9121  147.0070 C   0  0  0  0  0  0  0  0  0  0  0  0
  156.2388  151.8809  146.6346 C   0  0  0  0  0  0  0  0  0  0  0  0
  155.7634  150.9723  145.7322 C   0  0  0  0  0  0  0  0  0  0  0  0
  154.4226  150.9539  145.3944 C   0  0  0  0  0  0  0  0  0  0  0  0
  153.5544  151.8542  145.9669 C   0  0  0  0  0  0  0  0  0  0  0  0
  154.0120  152.7962  146.8941 C   0  0  0  0  0  0  0  0  0  0  0  0
  153.0210  153.7600  147.4941 C   0  0  0  0  0  0  0  0  0  0  0  0
  152.8410  153.5526  148.8864 N   0  0  0  0  0  0  0  0  0  0  0  0
  152.2150  154.5697  149.6409 C   0  0  0  0  0  0  0  0  0  0  0  0
  151.9923  154.2663  151.1007 C   0  0  1  0  0  0  0  0  0  0  0  0
  153.0938  153.7131  151.7407 O   0  0  0  0  0  0  0  0  0  0  0  0
  151.5872  155.4698  151.8485 C   0  0  0  0  0  0  0  0  0  0  0  0
  150.4426  155.5014  152.6000 C   0  0  0  0  0  0  0  0  0  0  0  0
  150.0551  156.6270  153.3121 C   0  0  0  0  0  0  0  0  0  0  0  0
  150.8635  157.7487  153.2503 C   0  0  0  0  0  0  0  0  0  0  0  0
  152.0195  157.7544  152.5069 C   0  0  0  0  0  0  0  0  0  0  0  0
  152.3632  156.5980  151.8107 C   0  0  0  0  0  0  0  0  0  0  0  0
  155.3464  152.7802  147.2008 C   0  0  0  0  0  0  0  0  0  0  0  0
  1  2  1  0
  2  3  2  0
  3  4  1  0
  4  5  2  0
  5  6  1  0
  6  7  1  0
  7  8  1  0
  8  9  1  0
  9 10  1  0
 10 11  1  1
 10 12  1  0
 12 13  2  0
 13 14  1  0
 14 15  2  0
 15 16  1  0
 16 17  2  0
  6 18  2  0
 18  2  1  0
 17 12  1  0
M  END
$$$$
