
     RDKit          3D

 23 24  0  0  0  0  0  0  0  0999 V2000
  126.5485  146.4858  150.7459 C   0  0  0  0  0  0  0  0  0  0  0  0
  127.1614  146.0494  149.5724 O   0  0  0  0  0  0  0  0  0  0  0  0
  127.3212  144.7204  149.2213 C   0  0  0  0  0  0  0  0  0  0  0  0
  126.8404  144.2427  148.0263 C   0  0  0  0  0  0  0  0  0  0  0  0
  126.9848  142.9335  147.6494 C   0  0  0  0  0  0  0  0  0  0  0  0
  127.6518  141.9946  148.4961 C   0  0  0  0  0  0  0  0  0  0  0  0
  127.8751  140.6914  147.9519 C   0  0  0  0  0  0  0  0  0  0  0  0
  128.2615  139.8147  148.8947 O   0  0  0  0  0  0  0  0  0  0  0  0
  127.7969  140.0695  146.6919 C   0  0  0  0  0  0  0  0  0  0  0  0
  127.4907  138.8727  146.3467 C   0  0  0  0  0  0  0  0  0  0  0  0
  127.6115  138.2539  145.0122 C   0  0  0  0  0  0  0  0  0  0  0  0
  128.0956  139.0544  143.9823 C   0  0  0  0  0  0  0  0  0  0  0  0
  128.2359  138.5520  142.7049 C   0  0  0  0  0  0  0  0  0  0  0  0
  127.9070  137.2578  142.4042 C   0  0  0  0  0  0  0  0  0  0  0  0
  128.0515  136.7634  141.1192 O   0  0  0  0  0  0  0  0  0  0  0  0
  127.4339  136.4659  143.3975 C   0  0  0  0  0  0  0  0  0  0  0  0
  127.2903  136.9688  144.6898 C   0  0  0  0  0  0  0  0  0  0  0  0
  126.8025  136.1166  145.6651 O   0  0  0  0  0  0  0  0  0  0  0  0
  126.5667  134.7691  145.3752 C   0  0  0  0  0  0  0  0  0  0  0  0
  128.1276  142.4682  149.6894 C   0  0  0  0  0  0  0  0  0  0  0  0
  128.7597  141.6382  150.5683 O   0  0  0  0  0  0  0  0  0  0  0  0
  129.0983  141.9019  151.8873 C   0  0  0  0  0  0  0  0  0  0  0  0
  127.9526  143.8142  150.0194 C   0  0  0  0  0  0  0  0  0  0  0  0
  1  2  1  0
  2  3  1  0
  3  4  2  0
  4  5  1  0
  5  6  2  0
  6  7  1  0
  7  8  2  0
  7  9  1  0
  9 10  2  3
 10 11  1  0
 11 12  2  0
 12 13  1  0
 13 14  2  0
 14 15  1  0
 14 16  1  0
 16 17  2  0
 17 18  1  0
 18 19  1  0
  6 20  1  0
 20 21  1  0
 21 22  1  0
 20 23  2  0
 23  3  1  0
 17 11  1  0
M  END
$$$$
