
     RDKit          3D

 38 42  0  0  0  0  0  0  0  0999 V2000
  170.3499  147.6216  162.3976 C   0  0  0  0  0  0  0  0  0  0  0  0
  171.3293  146.6763  162.0252 O   0  0  0  0  0  0  0  0  0  0  0  0
  171.0800  145.7520  161.0307 C   0  0  0  0  0  0  0  0  0  0  0  0
  172.0677  144.9078  160.6358 C   0  0  0  0  0  0  0  0  0  0  0  0
  171.8552  143.9823  159.6555 C   0  0  0  0  0  0  0  0  0  0  0  0
  170.6357  143.8405  159.0037 C   0  0  0  0  0  0  0  0  0  0  0  0
  170.4322  142.8727  157.9865 N   0  0  0  0  0  0  0  0  0  0  0  0
  170.0143  141.5412  158.2835 C   0  0  0  0  0  0  0  0  0  0  0  0
  169.8142  140.6086  157.3558 C   0  0  0  0  0  0  0  0  0  0  0  0
  169.3864  139.2626  157.7209 C   0  0  0  0  0  0  0  0  0  0  0  0
  169.4889  138.3377  156.9114 O   0  0  0  0  0  0  0  0  0  0  0  0
  168.8376  139.0840  159.0854 C   0  0  0  0  0  0  0  0  0  0  0  0
  169.8395  139.7965  160.0062 C   0  0  0  0  0  0  0  0  0  0  0  0
  169.4404  139.4511  161.4117 C   0  0  0  0  0  0  0  0  0  0  0  0
  171.1875  139.1734  159.7269 C   0  0  0  0  0  0  0  0  0  0  0  0
  169.8135  141.2671  159.7426 C   0  0  0  0  0  0  0  0  0  0  0  0
  170.0298  140.9453  155.9384 C   0  0  0  0  0  0  0  0  0  0  0  0
  168.8409  140.5683  155.0999 C   0  0  0  0  0  0  0  0  0  0  0  0
  168.9341  139.7714  153.9818 C   0  0  0  0  0  0  0  0  0  0  0  0
  167.8166  139.4527  153.2443 C   0  0  0  0  0  0  0  0  0  0  0  0
  166.5815  139.9274  153.6137 C   0  0  0  0  0  0  0  0  0  0  0  0
  165.4502  139.5942  152.8520 O   0  0  0  0  0  0  0  0  0  0  0  0
  165.5882  139.2122  151.4897 C   0  0  0  0  0  0  0  0  0  0  0  0
  166.4678  140.7247  154.7273 C   0  0  0  0  0  0  0  0  0  0  0  0
  165.2026  141.2092  155.1034 O   0  0  0  0  0  0  0  0  0  0  0  0
  164.9984  141.6275  156.4383 C   0  0  0  0  0  0  0  0  0  0  0  0
  167.5944  141.0353  155.4556 C   0  0  0  0  0  0  0  0  0  0  0  0
  170.4558  142.3137  155.6726 C   0  0  0  0  0  0  0  0  0  0  0  0
  170.6448  143.2148  156.6202 C   0  0  0  0  0  0  0  0  0  0  0  0
  171.0775  144.5736  156.2144 C   0  0  0  0  0  0  0  0  0  0  0  0
  172.1072  144.5737  155.1297 C   0  0  0  0  0  0  0  0  0  0  0  0
  172.2831  146.0209  154.6772 C   0  0  0  0  0  0  0  0  0  0  0  0
  173.4144  144.0651  155.6484 C   0  0  0  0  0  0  0  0  0  0  0  0
  171.6681  143.7872  153.9141 C   0  0  0  0  0  0  0  0  0  0  0  0
  170.6883  142.7221  154.2968 C   0  0  0  0  0  0  0  0  0  0  0  0
  170.0577  142.1831  153.3325 O   0  0  0  0  0  0  0  0  0  0  0  0
  169.6302  144.7076  159.4129 C   0  0  0  0  0  0  0  0  0  0  0  0
  169.8517  145.6410  160.4046 C   0  0  0  0  0  0  0  0  0  0  0  0
  1  2  1  0
  2  3  1  0
  3  4  2  0
  4  5  1  0
  5  6  2  0
  6  7  1  0
  7  8  1  0
  8  9  2  0
  9 10  1  0
 10 11  2  0
 10 12  1  0
 12 13  1  0
 13 14  1  0
 13 15  1  0
 13 16  1  0
  9 17  1  0
 17 18  1  0
 18 19  2  0
 19 20  1  0
 20 21  2  0
 21 22  1  0
 22 23  1  0
 21 24  1  0
 24 25  1  0
 25 26  1  0
 24 27  2  0
 17 28  1  0
 28 29  2  0
 29 30  1  0
 30 31  1  0
 31 32  1  0
 31 33  1  0
 31 34  1  0
 34 35  1  0
 35 36  2  0
  6 37  1  0
 37 38  2  0
 38  3  1  0
 29  7  1  0
 16  8  1  0
 27 18  1  0
 35 28  1  0
M  END
$$$$
