
     RDKit          3D

 25 27  0  0  0  0  0  0  0  0999 V2000
  174.6382  144.9565  160.9141 C   0  0  0  0  0  0  0  0  0  0  0  0
  173.4235  144.1408  161.2265 C   0  0  0  0  0  0  0  0  0  0  0  0
  172.5071  144.0860  160.1516 O   0  0  0  0  0  0  0  0  0  0  0  0
  172.3507  142.9501  159.3686 C   0  0  0  0  0  0  0  0  0  0  0  0
  172.8768  141.8970  159.7674 O   0  0  0  0  0  0  0  0  0  0  0  0
  171.5830  143.0439  158.1250 C   0  0  0  0  0  0  0  0  0  0  0  0
  171.4534  144.3004  157.5716 C   0  0  0  0  0  0  0  0  0  0  0  0
  170.7555  144.4631  156.4196 N   0  0  0  0  0  0  0  0  0  0  0  0
  170.1921  143.3842  155.8247 C   0  0  0  0  0  0  0  0  0  0  0  0
  169.4974  143.6230  154.6567 C   0  0  0  0  0  0  0  0  0  0  0  0
  169.3699  144.9865  154.0770 C   0  0  0  0  0  0  0  0  0  0  0  0
  168.9205  142.5291  154.0445 C   0  0  0  0  0  0  0  0  0  0  0  0
  168.1656  142.7341  152.7904 C   0  0  0  0  0  0  0  0  0  0  0  0
  169.0372  141.2644  154.5798 C   0  0  0  0  0  0  0  0  0  0  0  0
  169.7318  141.0289  155.7467 C   0  0  0  0  0  0  0  0  0  0  0  0
  170.3154  142.1112  156.3728 C   0  0  0  0  0  0  0  0  0  0  0  0
  171.0214  141.9258  157.5439 C   0  0  0  0  0  0  0  0  0  0  0  0
  171.1651  140.6342  158.1295 N   0  0  0  0  0  0  0  0  0  0  0  0
  170.0668  139.8440  158.5376 C   0  0  0  0  0  0  0  0  0  0  0  0
  168.7709  140.3202  158.5642 C   0  0  0  0  0  0  0  0  0  0  0  0
  167.7553  139.4847  158.9755 C   0  0  0  0  0  0  0  0  0  0  0  0
  167.9872  138.1799  159.3647 C   0  0  0  0  0  0  0  0  0  0  0  0
  166.9808  137.3238  159.7813 O   0  0  0  0  0  0  0  0  0  0  0  0
  169.2831  137.7028  159.3384 C   0  0  0  0  0  0  0  0  0  0  0  0
  170.2816  138.5413  158.9285 C   0  0  0  0  0  0  0  0  0  0  0  0
  1  2  1  0
  2  3  1  0
  3  4  1  0
  4  5  2  0
  4  6  1  0
  6  7  2  0
  7  8  1  0
  8  9  2  0
  9 10  1  0
 10 11  1  0
 10 12  2  0
 12 13  1  0
 12 14  1  0
 14 15  2  0
 15 16  1  0
 16 17  2  0
 17 18  1  0
 18 19  1  0
 19 20  2  0
 20 21  1  0
 21 22  2  0
 22 23  1  0
 22 24  1  0
 24 25  2  0
 17  6  1  0
 25 19  1  0
 16  9  1  0
M  END
$$$$
