
     RDKit          3D

 20 20  0  0  0  0  0  0  0  0999 V2000
    4.3437   35.2614   -4.8416 C   0  0  0  0  0  0  0  0  0  0  0  0
    3.5839   34.0457   -5.2438 C   0  0  0  0  0  0  0  0  0  0  0  0
    3.2048   33.8456   -6.5506 C   0  0  0  0  0  0  0  0  0  0  0  0
    2.4896   32.7007   -6.9267 C   0  0  0  0  0  0  0  0  0  0  0  0
    2.1362   31.7326   -6.0202 C   0  0  0  0  0  0  0  0  0  0  0  0
    1.4471   30.6299   -6.3717 O   0  0  0  0  0  0  0  0  0  0  0  0
    1.2159   29.9965   -7.5639 C   0  0  0  0  0  0  0  0  0  0  0  0
    0.3014   28.8034   -7.5381 C   0  0  0  0  0  0  0  0  0  0  0  0
    0.9632   27.7468   -6.6818 C   0  0  0  0  0  0  0  0  0  0  0  0
    0.2637   26.8986   -6.0740 O   0  0  0  0  0  0  0  0  0  0  0  0
    2.3300   27.6985   -6.5563 O   0  0  0  0  0  0  0  0  0  0  0  0
    2.9716   26.6577   -5.7786 C   0  0  0  0  0  0  0  0  0  0  0  0
    4.4339   26.8591   -5.7950 C   0  0  0  0  0  0  0  0  0  0  0  0
    5.1176   27.4044   -6.9700 C   0  0  0  0  0  0  0  0  0  0  0  0
    6.5476   27.6512   -7.0756 C   0  0  0  0  0  0  0  0  0  0  0  0
    7.2108   28.1449   -8.2846 C   0  0  0  0  0  0  0  0  0  0  0  0
    7.7784   29.3576   -8.3604 O   0  0  0  0  0  0  0  0  0  0  0  0
    2.5364   31.9635   -4.6918 C   0  0  0  0  0  0  0  0  0  0  0  0
    2.1660   30.9270   -3.6785 C   0  0  0  0  0  0  0  0  0  0  0  0
    3.2374   33.0848   -4.3191 C   0  0  0  0  0  0  0  0  0  0  0  0
  1  2  1  0
  2  3  2  0
  3  4  1  0
  4  5  2  0
  5  6  1  0
  6  7  1  0
  7  8  1  0
  8  9  1  0
  9 10  2  0
  9 11  1  0
 11 12  1  0
 12 13  1  0
 13 14  1  0
 14 15  1  0
 15 16  1  0
 16 17  1  0
  5 18  1  0
 18 19  1  0
 18 20  2  0
 20  2  1  0
M  END
$$$$
