
     RDKit          3D

 24 26  0  0  0  0  0  0  0  0999 V2000
  130.2071  140.3672  156.4758 O   0  0  0  0  0  0  0  0  0  0  0  0
  129.8595  140.3947  155.1483 C   0  0  0  0  0  0  0  0  0  0  0  0
  129.4588  141.7486  154.6267 C   0  0  0  0  0  0  0  0  0  0  0  0
  129.0363  141.7855  153.2770 N   0  0  0  0  0  0  0  0  0  0  0  0
  128.7204  143.0711  152.7550 C   0  0  0  0  0  0  0  0  0  0  0  0
  128.2888  142.9582  151.3358 C   0  0  0  0  0  0  0  0  0  0  0  0
  128.2537  141.7839  150.6691 N   0  0  0  0  0  0  0  0  0  0  0  0
  127.8793  141.6996  149.3723 C   0  0  0  0  0  0  0  0  0  0  0  0
  127.8411  140.4677  148.6655 N   0  0  0  0  0  0  0  0  0  0  0  0
  127.7403  140.4499  147.2736 C   0  0  0  0  0  0  0  0  0  0  0  0
  127.4440  141.6397  146.6102 C   0  0  0  0  0  0  0  0  0  0  0  0
  127.3203  141.6534  145.2403 C   0  0  0  0  0  0  0  0  0  0  0  0
  127.4809  140.5122  144.4754 C   0  0  0  0  0  0  0  0  0  0  0  0
  127.3202  140.5363  142.7242 Cl  0  0  0  0  0  0  0  0  0  0  0  0
  127.7742  139.3400  145.1429 C   0  0  0  0  0  0  0  0  0  0  0  0
  127.9752  137.8879  144.1714 Cl  0  0  0  0  0  0  0  0  0  0  0  0
  127.9047  139.3018  146.5304 C   0  0  0  0  0  0  0  0  0  0  0  0
  127.5109  142.7990  148.6511 N   0  0  0  0  0  0  0  0  0  0  0  0
  127.5330  143.9843  149.2826 C   0  0  0  0  0  0  0  0  0  0  0  0
  127.1622  145.0956  148.5592 C   0  0  0  0  0  0  0  0  0  0  0  0
  127.1626  146.3591  149.1586 C   0  0  0  0  0  0  0  0  0  0  0  0
  127.5465  146.4267  150.4806 C   0  0  0  0  0  0  0  0  0  0  0  0
  127.9210  145.3121  151.2127 C   0  0  0  0  0  0  0  0  0  0  0  0
  127.9126  144.0811  150.6024 C   0  0  0  0  0  0  0  0  0  0  0  0
  1  2  1  0
  2  3  1  0
  3  4  1  0
  4  5  1  0
  5  6  1  0
  6  7  2  0
  7  8  1  0
  8  9  1  0
  9 10  1  0
 10 11  2  0
 11 12  1  0
 12 13  2  0
 13 14  1  0
 13 15  1  0
 15 16  1  0
 15 17  2  0
  8 18  2  0
 18 19  1  0
 19 20  2  0
 20 21  1  0
 21 22  2  0
 22 23  1  0
 23 24  2  0
 24  6  1  0
 17 10  1  0
 24 19  1  0
M  END
$$$$
