
     RDKit          3D

 24 26  0  0  0  0  0  0  0  0999 V2000
  128.7204  132.8307   77.6734 O   0  0  0  0  0  0  0  0  0  0  0  0
  128.7999  131.6005   78.2767 C   0  0  0  0  0  0  0  0  0  0  0  0
  127.4918  131.0620   78.7913 C   0  0  0  0  0  0  0  0  0  0  0  0
  127.3204  129.6618   78.6845 N   0  0  0  0  0  0  0  0  0  0  0  0
  127.7562  129.0689   77.4665 C   0  0  0  0  0  0  0  0  0  0  0  0
  126.7065  129.2088   76.4217 C   0  0  0  0  0  0  0  0  0  0  0  0
  125.5421  129.8605   76.6320 N   0  0  0  0  0  0  0  0  0  0  0  0
  124.5876  129.9613   75.6791 C   0  0  0  0  0  0  0  0  0  0  0  0
  123.3608  130.6447   75.8943 N   0  0  0  0  0  0  0  0  0  0  0  0
  123.1859  131.4544   77.0175 C   0  0  0  0  0  0  0  0  0  0  0  0
  123.9026  131.1545   78.1750 C   0  0  0  0  0  0  0  0  0  0  0  0
  123.7406  131.9219   79.3051 C   0  0  0  0  0  0  0  0  0  0  0  0
  122.8781  133.0026   79.3433 C   0  0  0  0  0  0  0  0  0  0  0  0
  122.6744  133.9791   80.7919 Cl  0  0  0  0  0  0  0  0  0  0  0  0
  122.1738  133.2903   78.1914 C   0  0  0  0  0  0  0  0  0  0  0  0
  121.0744  134.6621   78.2403 Cl  0  0  0  0  0  0  0  0  0  0  0  0
  122.3219  132.5271   77.0341 C   0  0  0  0  0  0  0  0  0  0  0  0
  124.7399  129.4098   74.4392 N   0  0  0  0  0  0  0  0  0  0  0  0
  125.8866  128.7546   74.1943 C   0  0  0  0  0  0  0  0  0  0  0  0
  126.0444  128.1971   72.9453 C   0  0  0  0  0  0  0  0  0  0  0  0
  127.2156  127.5027   72.6264 C   0  0  0  0  0  0  0  0  0  0  0  0
  128.1778  127.4099   73.6089 C   0  0  0  0  0  0  0  0  0  0  0  0
  128.0239  127.9683   74.8671 C   0  0  0  0  0  0  0  0  0  0  0  0
  126.8644  128.6461   75.1573 C   0  0  0  0  0  0  0  0  0  0  0  0
  1  2  1  0
  2  3  1  0
  3  4  1  0
  4  5  1  0
  5  6  1  0
  6  7  2  0
  7  8  1  0
  8  9  1  0
  9 10  1  0
 10 11  2  0
 11 12  1  0
 12 13  2  0
 13 14  1  0
 13 15  1  0
 15 16  1  0
 15 17  2  0
  8 18  2  0
 18 19  1  0
 19 20  2  0
 20 21  1  0
 21 22  2  0
 22 23  1  0
 23 24  2  0
 24  6  1  0
 17 10  1  0
 24 19  1  0
M  END
$$$$
