
     RDKit          3D

 20 21  0  0  0  0  0  0  0  0999 V2000
    9.2818   32.4216   -6.1758 C   0  0  0  0  0  0  0  0  0  0  0  0
    8.0052   31.8121   -5.7225 C   0  0  0  0  0  0  0  0  0  0  0  0
    6.8668   32.5646   -5.6184 C   0  0  0  0  0  0  0  0  0  0  0  0
    5.6844   32.0136   -5.2015 C   0  0  0  0  0  0  0  0  0  0  0  0
    5.5925   30.6438   -4.8615 C   0  0  0  0  0  0  0  0  0  0  0  0
    4.3488   30.0872   -4.4402 C   0  0  0  0  0  0  0  0  0  0  0  0
    3.8935   30.6401   -3.3267 O   0  0  0  0  0  0  0  0  0  0  0  0
    3.5163   29.0896   -4.9495 C   0  0  0  0  0  0  0  0  0  0  0  0
    3.6608   28.0127   -5.6706 C   0  0  0  0  0  0  0  0  0  0  0  0
    2.6397   27.5191   -6.6299 C   0  0  0  0  0  0  0  0  0  0  0  0
    2.5950   26.2449   -7.1231 C   0  0  0  0  0  0  0  0  0  0  0  0
    1.5994   25.8415   -8.0301 C   0  0  0  0  0  0  0  0  0  0  0  0
    0.6298   26.7126   -8.4581 C   0  0  0  0  0  0  0  0  0  0  0  0
   -0.3670   26.3341   -9.3570 O   0  0  0  0  0  0  0  0  0  0  0  0
    0.6771   27.9948   -7.9601 C   0  0  0  0  0  0  0  0  0  0  0  0
   -0.2675   28.9075   -8.3540 F   0  0  0  0  0  0  0  0  0  0  0  0
    1.6545   28.3901   -7.0700 C   0  0  0  0  0  0  0  0  0  0  0  0
    6.7587   29.9339   -4.9825 C   0  0  0  0  0  0  0  0  0  0  0  0
    7.9495   30.5012   -5.4051 C   0  0  0  0  0  0  0  0  0  0  0  0
    9.1470   29.6385   -5.4980 C   0  0  0  0  0  0  0  0  0  0  0  0
  1  2  1  0
  2  3  2  0
  3  4  1  0
  4  5  2  0
  5  6  1  0
  6  7  2  0
  6  8  1  0
  8  9  2  3
  9 10  1  0
 10 11  2  0
 11 12  1  0
 12 13  2  0
 13 14  1  0
 13 15  1  0
 15 16  1  0
 15 17  2  0
  5 18  1  0
 18 19  2  0
 19 20  1  0
 19  2  1  0
 17 10  1  0
M  END
$$$$
