
     RDKit          3D

 19 19  0  0  0  0  0  0  0  0999 V2000
  127.5068  134.9322  140.2869 C   0  0  0  0  0  0  0  0  0  0  0  0
  128.3374  136.1282  139.9250 C   0  0  0  0  0  0  0  0  0  0  0  0
  127.3356  137.2058  139.4596 C   0  0  0  0  0  0  0  0  0  0  0  0
  129.2016  135.8562  138.6935 C   0  0  0  0  0  0  0  0  0  0  0  0
  129.0878  136.7501  141.0353 C   0  0  0  0  0  0  0  0  0  0  0  0
  128.3674  137.1800  142.2369 C   0  0  0  0  0  0  0  0  0  0  0  0
  129.2228  136.7519  143.4474 C   0  0  0  0  0  0  0  0  0  0  0  0
  127.0108  136.6117  142.4640 C   0  0  0  0  0  0  0  0  0  0  0  0
  128.2812  138.6199  142.3591 N   0  0  0  0  0  0  0  0  0  0  0  0
  127.8639  139.1024  143.6282 C   0  0  0  0  0  0  0  0  0  0  0  0
  128.1444  140.6120  143.6319 C   0  0  1  0  0  0  0  0  0  0  0  0
  127.5053  141.2241  142.5698 O   0  0  0  0  0  0  0  0  0  0  0  0
  127.6726  141.2437  144.8754 C   0  0  0  0  0  0  0  0  0  0  0  0
  127.8393  140.7067  146.1286 C   0  0  0  0  0  0  0  0  0  0  0  0
  127.3742  141.3493  147.2480 C   0  0  0  0  0  0  0  0  0  0  0  0
  126.7223  142.5592  147.1490 C   0  0  0  0  0  0  0  0  0  0  0  0
  126.1244  143.3901  148.5624 Cl  0  0  0  0  0  0  0  0  0  0  0  0
  126.5496  143.1078  145.8910 C   0  0  0  0  0  0  0  0  0  0  0  0
  127.0207  142.4544  144.7711 C   0  0  0  0  0  0  0  0  0  0  0  0
  1  2  1  0
  2  3  1  0
  2  4  1  0
  2  5  1  0
  5  6  1  0
  6  7  1  0
  6  8  1  0
  6  9  1  0
  9 10  1  0
 10 11  1  0
 11 12  1  6
 11 13  1  0
 13 14  2  0
 14 15  1  0
 15 16  2  0
 16 17  1  0
 16 18  1  0
 18 19  2  0
 19 13  1  0
M  END
$$$$
