
     RDKit          3D

 23 24  0  0  0  0  0  0  0  0999 V2000
  128.7208  147.6403  151.1320 C   0  0  0  0  0  0  0  0  0  0  0  0
  127.5336  146.9415  150.8224 O   0  0  0  0  0  0  0  0  0  0  0  0
  127.2886  146.4785  149.5417 C   0  0  0  0  0  0  0  0  0  0  0  0
  126.9645  147.2807  148.6411 O   0  0  0  0  0  0  0  0  0  0  0  0
  127.4151  145.0339  149.2582 C   0  0  0  0  0  0  0  0  0  0  0  0
  126.8734  144.4702  148.1384 C   0  0  0  0  0  0  0  0  0  0  0  0
  127.0066  143.1170  147.8967 C   0  0  0  0  0  0  0  0  0  0  0  0
  127.6785  142.3095  148.7631 C   0  0  0  0  0  0  0  0  0  0  0  0
  127.8518  140.8587  148.5522 C   0  0  0  0  0  0  0  0  0  0  0  0
  128.0738  140.2111  149.5938 O   0  0  0  0  0  0  0  0  0  0  0  0
  127.7746  140.2365  147.2749 C   0  0  0  0  0  0  0  0  0  0  0  0
  127.5933  139.0932  146.7677 C   0  0  0  0  0  0  0  0  0  0  0  0
  127.6180  138.5163  145.4619 C   0  0  0  0  0  0  0  0  0  0  0  0
  128.0972  139.2910  144.3731 C   0  0  0  0  0  0  0  0  0  0  0  0
  128.2046  138.8454  143.0904 C   0  0  0  0  0  0  0  0  0  0  0  0
  127.8270  137.5516  142.8013 C   0  0  0  0  0  0  0  0  0  0  0  0
  127.9136  137.0439  141.5150 O   0  0  0  0  0  0  0  0  0  0  0  0
  127.3535  136.7350  143.7936 C   0  0  0  0  0  0  0  0  0  0  0  0
  126.9801  135.4412  143.4827 O   0  0  0  0  0  0  0  0  0  0  0  0
  126.4817  134.5014  144.3848 C   0  0  0  0  0  0  0  0  0  0  0  0
  127.2631  137.2408  145.0966 C   0  0  0  0  0  0  0  0  0  0  0  0
  128.2292  142.8876  149.9033 C   0  0  0  0  0  0  0  0  0  0  0  0
  128.0931  144.2382  150.1393 C   0  0  0  0  0  0  0  0  0  0  0  0
  1  2  1  0
  2  3  1  0
  3  4  2  0
  3  5  1  0
  5  6  2  0
  6  7  1  0
  7  8  2  0
  8  9  1  0
  9 10  2  0
  9 11  1  0
 11 12  2  3
 12 13  1  0
 13 14  2  0
 14 15  1  0
 15 16  2  0
 16 17  1  0
 16 18  1  0
 18 19  1  0
 19 20  1  0
 18 21  2  0
  8 22  1  0
 22 23  2  0
 23  5  1  0
 21 13  1  0
M  END
$$$$
