
     RDKit          3D

 16 17  0  0  0  0  0  0  0  0999 V2000
  126.7671  136.7364  143.3692 C   0  0  0  0  0  0  0  0  0  0  0  0
  127.6730  137.2364  142.2999 C   0  0  0  0  0  0  0  0  0  0  0  0
  127.9584  136.5128  141.2032 N   0  0  0  0  0  0  0  0  0  0  0  0
  128.7734  136.9403  140.2216 C   0  0  0  0  0  0  0  0  0  0  0  0
  129.0569  136.1485  139.0693 N   0  0  0  0  0  0  0  0  0  0  0  0
  129.3232  138.1598  140.3624 N   0  0  0  0  0  0  0  0  0  0  0  0
  129.0672  138.9209  141.4426 C   0  0  0  0  0  0  0  0  0  0  0  0
  128.2330  138.4946  142.4569 C   0  0  0  0  0  0  0  0  0  0  0  0
  127.9356  139.2921  143.6371 C   0  0  0  0  0  0  0  0  0  0  0  0
  128.1768  138.8902  144.9328 C   0  0  0  0  0  0  0  0  0  0  0  0
  127.8748  139.6874  146.0165 C   0  0  0  0  0  0  0  0  0  0  0  0
  127.3038  140.9510  145.8224 C   0  0  0  0  0  0  0  0  0  0  0  0
  126.9302  141.9438  147.2222 Cl  0  0  0  0  0  0  0  0  0  0  0  0
  127.0601  141.3592  144.5335 C   0  0  0  0  0  0  0  0  0  0  0  0
  127.3725  140.5410  143.4725 C   0  0  0  0  0  0  0  0  0  0  0  0
  127.1181  140.9761  142.2113 F   0  0  0  0  0  0  0  0  0  0  0  0
  1  2  1  0
  2  3  2  0
  3  4  1  0
  4  5  1  0
  4  6  2  0
  6  7  1  0
  7  8  2  0
  8  9  1  0
  9 10  2  0
 10 11  1  0
 11 12  2  0
 12 13  1  0
 12 14  1  0
 14 15  2  0
 15 16  1  0
  8  2  1  0
 15  9  1  0
M  END
$$$$
