
     RDKit          3D

 22 23  0  0  0  0  0  0  0  0999 V2000
  163.6777  144.3534  157.4999 C   0  0  0  0  0  0  0  0  0  0  0  0
  164.7224  143.2922  157.6225 C   0  0  0  0  0  0  0  0  0  0  0  0
  165.6277  143.2951  158.5952 C   0  0  0  0  0  0  0  0  0  0  0  0
  167.0401  143.6000  158.2105 C   0  0  0  0  0  0  0  0  0  0  0  0
  167.8190  143.8835  159.4363 C   0  0  0  0  0  0  0  0  0  0  0  0
  169.0904  143.1473  159.5611 C   0  0  0  0  0  0  0  0  0  0  0  0
  169.9174  143.3408  160.6945 N   0  0  0  0  0  0  0  0  0  0  0  0
  171.2101  142.6868  160.7160 C   0  0  0  0  0  0  0  0  0  0  0  0
  172.2283  143.4931  161.4955 C   0  0  0  0  0  0  0  0  0  0  0  0
  173.4321  142.8006  161.5789 O   0  0  0  0  0  0  0  0  0  0  0  0
  169.4297  142.3348  158.6303 N   0  0  0  0  0  0  0  0  0  0  0  0
  168.6777  142.0714  157.4629 C   0  0  0  0  0  0  0  0  0  0  0  0
  169.1483  141.1381  156.4757 N   0  0  0  0  0  0  0  0  0  0  0  0
  168.5661  141.0634  155.1833 C   0  0  0  0  0  0  0  0  0  0  0  0
  168.1977  139.8188  154.7134 C   0  0  0  0  0  0  0  0  0  0  0  0
  167.6117  139.6570  153.4545 C   0  0  0  0  0  0  0  0  0  0  0  0
  167.3877  140.7417  152.6510 C   0  0  0  0  0  0  0  0  0  0  0  0
  166.7621  140.5240  151.3197 C   0  0  0  0  0  0  0  0  0  0  0  0
  167.7489  141.9922  153.1036 C   0  0  0  0  0  0  0  0  0  0  0  0
  167.4674  143.3878  152.0853 Cl  0  0  0  0  0  0  0  0  0  0  0  0
  168.3323  142.1297  154.3637 C   0  0  0  0  0  0  0  0  0  0  0  0
  167.5703  142.6654  157.2803 N   0  0  0  0  0  0  0  0  0  0  0  0
  1  2  1  0
  2  3  2  3
  3  4  1  0
  4  5  1  0
  5  6  1  0
  6  7  1  0
  7  8  1  0
  8  9  1  0
  9 10  1  0
  6 11  2  0
 11 12  1  0
 12 13  1  0
 13 14  1  0
 14 15  2  0
 15 16  1  0
 16 17  2  0
 17 18  1  0
 17 19  1  0
 19 20  1  0
 19 21  2  0
 12 22  2  0
 22  4  1  0
 21 14  1  0
M  END
$$$$
