
     RDKit          3D

 21 22  0  0  0  0  0  0  0  0999 V2000
  128.1942  144.0823  151.8570 C   0  0  0  0  0  0  0  0  0  0  0  0
  127.6729  143.3908  150.8047 C   0  0  0  0  0  0  0  0  0  0  0  0
  127.2476  142.0454  151.0938 C   0  0  0  0  0  0  0  0  0  0  0  0
  127.4219  140.8857  150.5766 C   0  0  0  0  0  0  0  0  0  0  0  0
  128.1191  140.3069  149.4536 C   0  0  0  0  0  0  0  0  0  0  0  0
  128.2571  140.7979  148.2619 C   0  0  0  0  0  0  0  0  0  0  0  0
  128.9906  140.1309  147.1374 C   0  0  0  0  0  0  0  0  0  0  0  0
  128.1010  140.3043  145.9201 C   0  0  0  0  0  0  0  0  0  0  0  0
  128.5529  139.8286  144.6879 N   0  0  0  0  0  0  0  0  0  0  0  0
  127.7110  139.0686  143.7987 C   0  0  0  0  0  0  0  0  0  0  0  0
  128.0230  137.5949  143.8678 C   0  0  0  0  0  0  0  0  0  0  0  0
  129.0922  137.2871  143.0172 O   0  0  0  0  0  0  0  0  0  0  0  0
  126.9306  140.8930  146.0398 N   0  0  0  0  0  0  0  0  0  0  0  0
  126.6793  141.8381  147.0390 C   0  0  0  0  0  0  0  0  0  0  0  0
  127.7183  142.0655  147.8214 N   0  0  0  0  0  0  0  0  0  0  0  0
  125.5241  142.5501  147.3611 N   0  0  0  0  0  3  0  0  0  0  0  0
  125.5054  143.2521  148.4941 C   0  0  0  0  0  0  0  0  0  0  0  0
  126.4079  144.1475  148.6741 C   0  0  0  0  0  0  0  0  0  0  0  0
  127.5861  144.1237  149.5387 C   0  0  0  0  0  0  0  0  0  0  0  0
  128.6263  144.8202  149.0947 C   0  0  0  0  0  0  0  0  0  0  0  0
  128.9075  146.4485  149.6154 Cl  0  0  0  0  0  0  0  0  0  0  0  0
  1  2  2  0
  2  3  1  0
  3  4  2  0
  4  5  1  0
  5  6  2  0
  6  7  1  0
  7  8  1  0
  8  9  1  0
  9 10  1  0
 10 11  1  0
 11 12  1  0
  8 13  2  0
 13 14  1  0
 14 15  2  0
 14 16  1  0
 16 17  2  0
 17 18  2  0
 18 19  1  0
 19 20  2  3
 20 21  1  0
 19  2  1  0
 15  6  1  0
M  CHG  1  16   1
M  RAD  1  16   2
M  END
$$$$
