
     RDKit          3D

 24 26  0  0  0  0  0  0  0  0999 V2000
  166.7513  146.3549  160.9375 C   0  0  0  0  0  0  0  0  0  0  0  0
  166.2004  145.9204  159.8351 C   0  0  0  0  0  0  0  0  0  0  0  0
  165.0490  146.6438  159.2835 C   0  0  0  0  0  0  0  0  0  0  0  0
  164.4188  146.1237  158.2672 C   0  0  0  0  0  0  0  0  0  0  0  0
  164.8263  144.8722  157.6734 C   0  0  0  0  0  0  0  0  0  0  0  0
  165.8603  144.1856  158.1040 C   0  0  0  0  0  0  0  0  0  0  0  0
  166.2550  142.9577  157.5396 N   0  0  0  0  0  0  0  0  0  0  0  0
  167.0658  142.1917  158.1854 C   0  0  0  0  0  0  0  0  0  0  0  0
  167.4547  140.9658  157.6217 N   0  0  0  0  0  0  0  0  0  0  0  0
  167.1006  140.4862  156.3364 C   0  0  0  0  0  0  0  0  0  0  0  0
  166.6023  139.2311  156.1169 C   0  0  0  0  0  0  0  0  0  0  0  0
  166.3055  138.8417  154.8039 C   0  0  0  0  0  0  0  0  0  0  0  0
  166.4824  139.6411  153.7103 C   0  0  0  0  0  0  0  0  0  0  0  0
  166.0936  139.1224  152.0801 Cl  0  0  0  0  0  0  0  0  0  0  0  0
  166.9902  140.9140  153.9668 C   0  0  0  0  0  0  0  0  0  0  0  0
  167.1993  141.9665  152.5625 Cl  0  0  0  0  0  0  0  0  0  0  0  0
  167.2925  141.3302  155.2309 C   0  0  0  0  0  0  0  0  0  0  0  0
  167.5403  142.6564  159.4559 N   0  0  0  0  0  0  0  0  0  0  0  0
  166.9480  143.7002  160.1203 O   0  0  0  0  0  0  0  0  0  0  0  0
  166.7909  144.7213  159.1838 C   0  0  0  0  0  0  0  0  0  0  0  0
  168.0086  145.0597  158.5972 N   0  0  0  0  0  0  0  0  0  0  0  0
  169.4003  145.3983  158.9115 S   0  0  0  0  0  3  0  0  0  0  0  0
  170.5310  144.2508  158.3006 C   0  0  0  0  0  0  0  0  0  0  0  0
  171.3816  143.3968  157.8344 S   0  0  0  0  0  4  0  0  0  0  0  0
  1  2  2  0
  2  3  1  0
  3  4  2  0
  4  5  1  0
  5  6  2  0
  6  7  1  0
  7  8  2  0
  8  9  1  0
  9 10  1  0
 10 11  2  0
 11 12  1  0
 12 13  2  0
 13 14  1  0
 13 15  1  0
 15 16  1  0
 15 17  2  0
  8 18  1  0
 18 19  1  0
 19 20  1  0
 20 21  1  0
 21 22  2  3
 22 23  1  0
 23 24  3  0
 20  2  1  0
 20  6  1  0
 17 10  1  0
M  CHG  1  22  -1
M  END
$$$$
