
     RDKit          3D

 20 21  0  0  0  0  0  0  0  0999 V2000
   28.8207   53.3815   29.5074 C   0  0  0  0  0  0  0  0  0  0  0  0
   27.7376   53.0661   28.5747 C   0  0  1  0  0  0  0  0  0  0  0  0
   28.1754   53.3533   27.2220 N   0  0  0  0  0  0  0  0  0  0  0  0
   27.0200   53.4288   26.3438 C   0  0  0  0  0  0  0  0  0  0  0  0
   27.4717   53.3342   24.9190 C   0  0  0  0  0  0  0  0  0  0  0  0
   27.5604   54.4645   24.1341 C   0  0  0  0  0  0  0  0  0  0  0  0
   27.9753   54.3927   22.8187 C   0  0  0  0  0  0  0  0  0  0  0  0
   28.3190   53.1905   22.2317 C   0  0  0  0  0  0  0  0  0  0  0  0
   28.7670   53.1143   20.8109 C   0  0  0  0  0  0  0  0  0  0  0  0
   29.6542   54.2101   20.4710 N   0  0  0  0  0  4  0  0  0  0  0  0
   28.2276   52.0643   23.0237 C   0  0  0  0  0  0  0  0  0  0  0  0
   27.8131   52.1300   24.3403 C   0  0  0  0  0  0  0  0  0  0  0  0
   27.1289   51.7575   28.6300 C   0  0  0  0  0  0  0  0  0  0  0  0
   27.9365   50.6426   28.6791 C   0  0  0  0  0  0  0  0  0  0  0  0
   27.4225   49.3483   28.7367 C   0  0  0  0  0  0  0  0  0  0  0  0
   28.4658   47.9363   28.7988 Cl  0  0  0  0  0  0  0  0  0  0  0  0
   26.0689   49.1491   28.7462 C   0  0  0  0  0  0  0  0  0  0  0  0
   25.2367   50.2612   28.6974 C   0  0  0  0  0  0  0  0  0  0  0  0
   25.7499   51.5366   28.6405 C   0  0  0  0  0  0  0  0  0  0  0  0
   24.7604   52.9566   28.5781 Cl  0  0  0  0  0  0  0  0  0  0  0  0
  2  1  1  1
  2  3  1  0
  3  4  1  0
  4  5  1  0
  5  6  2  0
  6  7  1  0
  7  8  2  0
  8  9  1  0
  9 10  1  0
  8 11  1  0
 11 12  2  0
  2 13  1  0
 13 14  2  0
 14 15  1  0
 15 16  1  0
 15 17  2  0
 17 18  1  0
 18 19  2  0
 19 20  1  0
 12  5  1  0
 19 13  1  0
M  CHG  1  10   1
M  END
$$$$
