
     RDKit          3D

 20 21  0  0  0  0  0  0  0  0999 V2000
17710.685555781.3711-301028.0625 C   0  0  0  0  0  0  0  0  0  0  0  0
17709.357455781.8320-301027.6875 C   0  0  1  0  0  0  0  0  0  0  0  0
17708.347755781.0117-301028.3125 N   0  0  0  0  0  0  0  0  0  0  0  0
17707.466855781.8398-301029.0938 C   0  0  0  0  0  0  0  0  0  0  0  0
17706.511755780.9922-301029.8438 C   0  0  0  0  0  0  0  0  0  0  0  0
17705.232455780.7969-301029.4688 C   0  0  0  0  0  0  0  0  0  0  0  0
17704.279355780.0625-301030.0312 C   0  0  0  0  0  0  0  0  0  0  0  0
17704.646555779.3750-301031.2500 C   0  0  0  0  0  0  0  0  0  0  0  0
17703.646555778.5781-301031.9688 C   0  0  0  0  0  0  0  0  0  0  0  0
17703.863355778.6641-301033.4688 N   0  0  0  0  0  4  0  0  0  0  0  0
17705.918055779.5859-301031.6875 C   0  0  0  0  0  0  0  0  0  0  0  0
17706.855555780.3438-301031.0625 C   0  0  0  0  0  0  0  0  0  0  0  0
17709.039155781.9258-301026.2500 C   0  0  0  0  0  0  0  0  0  0  0  0
17709.970755781.4922-301025.3125 C   0  0  0  0  0  0  0  0  0  0  0  0
17709.730555781.5703-301023.8750 C   0  0  0  0  0  0  0  0  0  0  0  0
17710.953155781.0195-301022.7812 Cl  0  0  0  0  0  0  0  0  0  0  0  0
17708.572355782.0664-301023.4375 C   0  0  0  0  0  0  0  0  0  0  0  0
17707.636755782.5117-301024.4688 C   0  0  0  0  0  0  0  0  0  0  0  0
17707.861355782.4375-301025.8125 C   0  0  0  0  0  0  0  0  0  0  0  0
17706.679755782.9648-301026.9062 Cl  0  0  0  0  0  0  0  0  0  0  0  0
  2  1  1  1
  2  3  1  0
  3  4  1  0
  4  5  1  0
  5  6  2  0
  6  7  1  0
  7  8  2  0
  8  9  1  0
  9 10  1  0
  8 11  1  0
 11 12  2  0
  2 13  1  0
 13 14  2  0
 14 15  1  0
 15 16  1  0
 15 17  2  0
 17 18  1  0
 18 19  2  0
 19 20  1  0
 12  5  1  0
 19 13  1  0
M  CHG  1  10   1
M  END
$$$$
