
     RDKit          3D

 26 28  0  0  0  0  0  0  0  0999 V2000
  150.3076  151.4239  157.0988 C   0  0  0  0  0  0  0  0  0  0  0  0
  149.4011  152.2160  156.2142 C   0  0  0  0  0  0  0  0  0  0  0  0
  149.8041  152.2790  154.8774 O   0  0  0  0  0  0  0  0  0  0  0  0
  150.5620  153.2711  154.3203 C   0  0  0  0  0  0  0  0  0  0  0  0
  151.0271  154.1610  155.0511 O   0  0  0  0  0  0  0  0  0  0  0  0
  150.8284  153.2982  152.8976 C   0  0  0  0  0  0  0  0  0  0  0  0
  150.2787  152.3004  152.0842 C   0  0  0  0  0  0  0  0  0  0  0  0
  150.5195  152.2923  150.7720 N   0  0  0  0  0  0  0  0  0  0  0  0
  151.2916  153.2411  150.2172 C   0  0  0  0  0  0  0  0  0  0  0  0
  151.5056  153.1816  148.8568 C   0  0  0  0  0  0  0  0  0  0  0  0
  152.3025  154.1528  148.2540 C   0  0  0  0  0  0  0  0  0  0  0  0
  152.8420  155.1318  149.0490 C   0  0  0  0  0  0  0  0  0  0  0  0
  152.6354  155.1993  150.4000 C   0  0  0  0  0  0  0  0  0  0  0  0
  151.8470  154.2370  150.9908 C   0  0  0  0  0  0  0  0  0  0  0  0
  151.6185  154.2777  152.3579 C   0  0  0  0  0  0  0  0  0  0  0  0
  152.1490  155.2825  153.2009 N   0  0  0  0  0  0  0  0  0  0  0  0
  152.2332  156.6411  152.7319 C   0  0  0  0  0  0  0  0  0  0  0  0
  151.8570  157.6251  153.7831 C   0  0  0  0  0  0  0  0  0  0  0  0
  151.0141  158.6835  153.5064 C   0  0  0  0  0  0  0  0  0  0  0  0
  150.6540  159.6053  154.4685 C   0  0  0  0  0  0  0  0  0  0  0  0
  151.1237  159.5110  155.7621 C   0  0  0  0  0  0  0  0  0  0  0  0
  150.7460  160.4674  156.7474 N   0  0  0  0  0  4  0  0  0  0  0  0
  151.1478  160.2997  157.9337 O   0  0  0  0  0  0  0  0  0  0  0  0
  149.9724  161.5215  156.3860 O   0  0  0  0  0  1  0  0  0  0  0  0
  151.9662  158.4549  156.0427 C   0  0  0  0  0  0  0  0  0  0  0  0
  152.3242  157.5350  155.0782 C   0  0  0  0  0  0  0  0  0  0  0  0
  1  2  1  0
  2  3  1  0
  3  4  1  0
  4  5  2  0
  4  6  1  0
  6  7  2  0
  7  8  1  0
  8  9  2  0
  9 10  1  0
 10 11  2  0
 11 12  1  0
 12 13  2  0
 13 14  1  0
 14 15  2  0
 15 16  1  0
 16 17  1  0
 17 18  1  0
 18 19  2  0
 19 20  1  0
 20 21  2  0
 21 22  1  0
 22 23  2  0
 22 24  1  0
 21 25  1  0
 25 26  2  0
 15  6  1  0
 26 18  1  0
 14  9  1  0
M  CHG  2  22   1  24  -1
M  END
$$$$
