
     RDKit          3D

 31 33  0  0  0  0  0  0  0  0999 V2000
   16.4865   29.3203   12.5916 C   0  0  0  0  0  0  0  0  0  0  0  0
   16.2037   28.4727   13.8256 C   0  0  0  0  0  0  0  0  0  0  0  0
   15.9872   27.8249   14.7432 C   0  0  0  0  0  0  0  0  0  0  0  0
   15.7184   26.9387   15.9817 C   0  0  0  0  0  0  0  0  0  0  0  0
   14.3156   25.9276   15.7440 S   0  0  0  0  0  6  0  0  0  0  0  0
   14.3709   25.1626   14.4078 O   0  0  0  0  0  0  0  0  0  0  0  0
   14.3745   24.8729   16.8184 O   0  0  0  0  0  0  0  0  0  0  0  0
   12.7740   26.7114   15.8617 C   0  0  0  0  0  0  0  0  0  0  0  0
   11.8477   26.4543   14.7820 C   0  0  0  0  0  0  0  0  0  0  0  0
   10.6349   26.9814   14.8417 C   0  0  0  0  0  0  0  0  0  0  0  0
   10.2779   27.7472   15.9183 C   0  0  0  0  0  0  0  0  0  0  0  0
   11.0366   28.0459   16.9900 C   0  0  0  0  0  0  0  0  0  0  0  0
   10.5529   28.8573   18.0663 C   0  0  0  0  0  0  0  0  0  0  0  0
    9.4926   29.5967   17.5753 O   0  0  0  0  0  0  0  0  0  0  0  0
   10.8046   29.0785   19.3576 N   0  0  0  0  0  0  0  0  0  0  0  0
   10.2484   30.2582   20.0109 C   0  0  0  0  0  0  0  0  0  0  0  0
   10.2778   30.9537   20.8492 N   0  0  0  0  0  0  0  0  0  0  0  0
    9.8171   31.9286   21.5397 C   0  0  0  0  0  0  0  0  0  0  0  0
   10.2212   32.7618   22.6072 C   0  0  0  0  0  0  0  0  0  0  0  0
   10.2306   32.4131   23.9583 C   0  0  0  0  0  0  0  0  0  0  0  0
   10.6045   33.2305   25.0023 C   0  0  0  0  0  0  0  0  0  0  0  0
   11.0084   34.5401   24.6858 C   0  0  0  0  0  0  0  0  0  0  0  0
   11.3603   35.4389   25.6946 O   0  0  0  0  0  0  0  0  0  0  0  0
   12.1535   34.9088   26.7801 C   0  0  0  0  0  0  0  0  0  0  0  0
   11.5911   35.1907   28.1251 C   0  0  0  0  0  0  0  0  0  0  0  0
   11.0258   34.8806   23.4128 C   0  0  0  0  0  0  0  0  0  0  0  0
   10.6663   34.1029   22.3513 C   0  0  0  0  0  0  0  0  0  0  0  0
    8.6134   32.2250   20.7108 C   0  0  0  0  0  0  0  0  0  0  0  0
    7.5555   33.2000   20.9646 C   0  0  0  0  0  0  0  0  0  0  0  0
    8.7106   31.0502   19.4171 S   0  0  0  0  0  0  0  0  0  0  0  0
   12.3569   27.4994   16.9475 C   0  0  0  0  0  0  0  0  0  0  0  0
  1  2  1  0
  2  3  3  0
  3  4  1  0
  4  5  1  0
  5  6  2  0
  5  7  2  0
  5  8  1  0
  8  9  2  0
  9 10  1  0
 10 11  2  0
 11 12  1  0
 12 13  1  0
 13 14  2  0
 13 15  1  0
 15 16  1  0
 16 17  2  0
 17 18  1  0
 18 19  1  0
 19 20  2  0
 20 21  1  0
 21 22  2  0
 22 23  1  0
 23 24  1  0
 24 25  1  0
 22 26  1  0
 26 27  2  0
 18 28  2  0
 28 29  1  0
 28 30  1  0
 12 31  2  0
 31  8  1  0
 30 16  1  0
 27 19  1  0
M  END
$$$$
