
     RDKit          3D

 19 21  0  0  0  0  0  0  0  0999 V2000
  158.3714  153.2330  149.0804 C   0  0  0  0  0  0  0  0  0  0  0  0
  157.1294  154.0299  149.3134 C   0  0  0  0  0  0  0  0  0  0  0  0
  156.6058  153.8584  150.7253 C   0  0  0  0  0  0  0  0  0  0  0  0
  156.0271  153.6306  148.3712 C   0  0  0  0  0  0  0  0  0  0  0  0
  154.7548  154.1495  148.4916 C   0  0  0  0  0  0  0  0  0  0  0  0
  153.7434  153.7800  147.6231 C   0  0  0  0  0  0  0  0  0  0  0  0
  153.9673  152.8788  146.6034 C   0  0  0  0  0  0  0  0  0  0  0  0
  153.1696  152.3609  145.6392 N   0  0  0  0  0  0  0  0  0  0  0  0
  153.9301  151.5201  144.9128 C   0  0  0  0  0  0  0  0  0  0  0  0
  153.4583  150.7487  143.7691 C   0  0  0  0  0  0  0  0  0  0  0  0
  152.2881  151.1002  143.1270 C   0  0  0  0  0  0  0  0  0  0  0  0
  151.8398  150.3590  142.0324 C   0  0  0  0  0  0  0  0  0  0  0  0
  152.5511  149.2594  141.5641 C   0  0  0  0  0  0  0  0  0  0  0  0
  152.0713  148.5263  140.4508 N   0  0  0  0  0  0  0  0  0  0  0  0
  153.7110  148.9182  142.2074 C   0  0  0  0  0  0  0  0  0  0  0  0
  154.1456  149.6721  143.3029 C   0  0  0  0  0  0  0  0  0  0  0  0
  155.1747  151.5211  145.4221 N   0  0  0  0  0  0  0  0  0  0  0  0
  155.2391  152.3578  146.4801 C   0  0  0  0  0  0  0  0  0  0  0  0
  156.2534  152.7301  147.3531 C   0  0  0  0  0  0  0  0  0  0  0  0
  1  2  1  0
  2  3  1  0
  2  4  1  0
  4  5  2  0
  5  6  1  0
  6  7  2  0
  7  8  1  0
  8  9  1  0
  9 10  1  0
 10 11  2  0
 11 12  1  0
 12 13  2  0
 13 14  1  0
 13 15  1  0
 15 16  2  0
  9 17  2  0
 17 18  1  0
 18 19  2  0
 19  4  1  0
 18  7  1  0
 16 10  1  0
M  END
$$$$
