
     RDKit          3D

 25 26  0  0  0  0  0  0  0  0999 V2000
  128.3328  140.7441  142.1882 C   0  0  0  0  0  0  0  0  0  0  0  0
  128.2061  139.3404  142.1366 O   0  0  0  0  0  0  0  0  0  0  0  0
  127.9297  138.5620  143.2478 C   0  0  0  0  0  0  0  0  0  0  0  0
  127.7618  137.2174  143.0841 C   0  0  0  0  0  0  0  0  0  0  0  0
  127.8621  136.6123  141.8260 O   0  0  0  0  0  0  0  0  0  0  0  0
  127.4891  136.4783  144.2083 C   0  0  0  0  0  0  0  0  0  0  0  0
  127.3863  137.0437  145.4440 C   0  0  0  0  0  0  0  0  0  0  0  0
  127.1062  136.2549  146.5701 O   0  0  0  0  0  0  0  0  0  0  0  0
  127.0452  134.8579  146.4850 C   0  0  0  0  0  0  0  0  0  0  0  0
  127.5522  138.4365  145.6681 C   0  0  0  0  0  0  0  0  0  0  0  0
  127.4267  138.9430  147.0001 C   0  0  0  0  0  0  0  0  0  0  0  0
  127.4008  138.0143  147.9436 O   0  0  0  0  0  0  0  0  0  0  0  0
  127.3225  140.2413  147.5398 C   0  0  0  0  0  0  0  0  0  0  0  0
  127.5819  140.7330  148.7038 C   0  0  0  0  0  0  0  0  0  0  0  0
  127.5501  142.1922  148.9813 C   0  0  0  0  0  0  0  0  0  0  0  0
  127.3214  143.1267  148.0481 C   0  0  0  0  0  0  0  0  0  0  0  0
  127.3095  144.4799  148.3992 C   0  0  0  0  0  0  0  0  0  0  0  0
  127.5256  144.9150  149.6848 C   0  0  0  0  0  0  0  0  0  0  0  0
  127.5084  146.2612  150.0054 O   0  0  0  0  0  0  0  0  0  0  0  0
  127.4022  147.2059  148.9804 C   0  0  0  0  0  0  0  0  0  0  0  0
  127.7594  143.9470  150.6349 C   0  0  0  0  0  0  0  0  0  0  0  0
  127.9799  144.3614  151.9376 O   0  0  0  0  0  0  0  0  0  0  0  0
  127.7732  142.6053  150.2975 C   0  0  0  0  0  0  0  0  0  0  0  0
  128.1035  141.3095  151.6616 Br  0  0  0  0  0  0  0  0  0  0  0  0
  127.8224  139.1356  144.5226 C   0  0  0  0  0  0  0  0  0  0  0  0
  1  2  1  0
  2  3  1  0
  3  4  2  0
  4  5  1  0
  4  6  1  0
  6  7  2  0
  7  8  1  0
  8  9  1  0
  7 10  1  0
 10 11  1  0
 11 12  2  0
 11 13  1  0
 13 14  2  3
 14 15  1  0
 15 16  2  0
 16 17  1  0
 17 18  2  0
 18 19  1  0
 19 20  1  0
 18 21  1  0
 21 22  1  0
 21 23  2  0
 23 24  1  0
 10 25  2  0
 25  3  1  0
 23 15  1  0
M  END
$$$$
