
     RDKit          3D

 17 17  0  0  0  0  0  0  0  0999 V2000
  125.2170  136.6324  148.8953 C   0  0  0  0  0  0  0  0  0  0  0  0
  124.9606  136.2705  147.4803 C   0  0  0  0  0  0  0  0  0  0  0  0
  125.9491  136.2927  146.6110 C   0  0  0  0  0  0  0  0  0  0  0  0
  125.7430  135.8640  145.2359 C   0  0  0  0  0  0  0  0  0  0  0  0
  126.7195  135.8829  144.3443 C   0  0  0  0  0  0  0  0  0  0  0  0
  126.5283  135.5236  142.9908 N   0  0  0  0  0  0  0  0  0  0  0  0
  127.4165  135.8170  142.1018 C   0  0  0  0  0  0  0  0  0  0  0  0
  128.9440  134.9384  141.9932 Cl  0  0  0  0  0  0  0  0  0  0  0  0
  127.1144  136.8821  141.2139 N   0  0  0  0  0  0  0  0  0  0  0  0
  127.9996  137.3310  140.2069 C   0  0  0  0  0  0  0  0  0  0  0  0
  129.1394  136.6998  139.7935 C   0  0  0  0  0  0  0  0  0  0  0  0
  129.9260  137.2572  138.7753 C   0  0  0  0  0  0  0  0  0  0  0  0
  129.5992  138.4416  138.1536 C   0  0  0  0  0  0  0  0  0  0  0  0
  130.6172  139.0903  136.8900 Cl  0  0  0  0  0  0  0  0  0  0  0  0
  128.4510  139.0816  138.5673 C   0  0  0  0  0  0  0  0  0  0  0  0
  128.0253  140.6191  137.7623 S   0  0  0  0  0  0  0  0  0  0  0  0
  127.6880  138.5273  139.5648 C   0  0  0  0  0  0  0  0  0  0  0  0
  1  2  1  0
  2  3  2  3
  3  4  1  0
  4  5  2  3
  5  6  1  0
  6  7  2  3
  7  8  1  0
  7  9  1  0
  9 10  1  0
 10 11  2  0
 11 12  1  0
 12 13  2  0
 13 14  1  0
 13 15  1  0
 15 16  1  0
 15 17  2  0
 17 10  1  0
M  END
$$$$
