
     RDKit          3D

 24 27  0  0  0  0  0  0  0  0999 V2000
    4.4076   32.9506   -1.3092 Cl  0  0  0  0  0  0  0  0  0  0  0  0
    3.4558   32.3643   -2.6614 C   0  0  0  0  0  0  0  0  0  0  0  0
    2.1671   32.7886   -2.8568 C   0  0  0  0  0  0  0  0  0  0  0  0
    1.4462   32.3046   -3.9370 C   0  0  0  0  0  0  0  0  0  0  0  0
    2.0397   31.4169   -4.7802 C   0  0  0  0  0  0  0  0  0  0  0  0
    1.3818   30.9146   -5.9096 N   0  0  0  0  0  0  0  0  0  0  0  0
    1.6550   29.6073   -6.4084 C   0  0  0  0  0  0  0  0  0  0  0  0
    2.7608   28.9298   -6.1262 N   0  0  0  0  0  0  0  0  0  0  0  0
    3.0962   27.7035   -6.5451 C   0  0  0  0  0  0  0  0  0  0  0  0
    4.3817   27.0784   -6.1683 C   0  0  0  0  0  0  0  0  0  0  0  0
    5.2778   27.9431   -5.3336 C   0  0  0  0  0  0  0  0  0  0  0  0
    6.0108   28.9659   -6.1883 C   0  0  0  0  0  0  0  0  0  0  0  0
    6.9302   28.4926   -7.2073 C   0  0  0  0  0  0  0  0  0  0  0  0
    7.3965   29.1116   -6.0054 N   0  0  0  0  0  0  0  0  0  0  0  0
    2.1849   27.0741   -7.3636 C   0  0  0  0  0  0  0  0  0  0  0  0
    2.4121   25.8030   -7.8493 C   0  0  0  0  0  0  0  0  0  0  0  0
    1.4519   25.2310   -8.6544 C   0  0  0  0  0  0  0  0  0  0  0  0
    0.2800   25.8637   -8.9970 C   0  0  0  0  0  0  0  0  0  0  0  0
    0.0727   27.1373   -8.4980 C   0  0  0  0  0  0  0  0  0  0  0  0
    1.0149   27.7687   -7.6735 C   0  0  0  0  0  0  0  0  0  0  0  0
    0.7388   28.9968   -7.2215 N   0  0  0  0  0  0  0  0  0  0  0  0
    3.3493   30.9776   -4.5927 C   0  0  0  0  0  0  0  0  0  0  0  0
    4.0419   31.4673   -3.5205 C   0  0  0  0  0  0  0  0  0  0  0  0
    5.6931   30.9272   -3.2670 Cl  0  0  0  0  0  0  0  0  0  0  0  0
  1  2  1  0
  2  3  2  0
  3  4  1  0
  4  5  2  0
  5  6  1  0
  6  7  1  0
  7  8  2  0
  8  9  1  0
  9 10  1  0
 10 11  1  0
 11 12  1  0
 12 13  1  0
 13 14  2  0
  9 15  2  0
 15 16  1  0
 16 17  2  0
 17 18  1  0
 18 19  2  0
 19 20  1  0
 20 21  2  0
  5 22  1  0
 22 23  2  0
 23 24  1  0
 23  2  1  0
 21  7  1  0
 14 12  1  0
 20 15  1  0
M  END
$$$$
