
     RDKit          3D

  9  8  0  0  0  0  0  0  0  0999 V2000
   45.2117   31.8782   23.0206 Cl  0  0  0  0  0  0  0  0  0  0  0  0
   46.2711   31.3120   21.7560 C   0  0  0  0  0  0  0  0  0  0  0  0
   45.7756   30.6189   20.7663 C   0  0  0  0  0  0  0  0  0  0  0  0
   46.6770   30.1721   19.6958 C   0  0  0  0  0  0  0  0  0  0  0  0
   46.1829   29.5362   18.6586 C   0  0  0  0  0  0  0  0  0  0  0  0
   44.9348   28.7574   18.8374 C   0  0  0  0  0  0  0  0  0  0  0  0
   45.2641   27.0135   18.6558 Cl  0  0  0  0  0  0  0  0  0  0  0  0
   46.8604   29.6240   17.4288 N   0  0  0  0  0  0  0  0  0  0  0  0
   46.0948   28.6910   15.7501 I   0  0  0  0  0  0  0  0  0  0  0  0
  1  2  1  0
  2  3  2  3
  3  4  1  0
  4  5  2  3
  5  6  1  0
  6  7  1  0
  5  8  1  0
  8  9  1  0
M  END
$$$$
