
     RDKit          3D

  9  8  0  0  0  0  0  0  0  0999 V2000
   21.4552   20.4363   13.4407 Cl  0  0  0  0  0  0  0  0  0  0  0  0
   23.1465   20.5044   13.8615 C   0  0  0  0  0  0  0  0  0  0  0  0
   23.4923   20.8321   15.0775 C   0  0  0  0  0  0  0  0  0  0  0  0
   24.9141   21.0575   15.3710 C   0  0  0  0  0  0  0  0  0  0  0  0
   25.2705   21.4604   16.5688 C   0  0  0  0  0  0  0  0  0  0  0  0
   24.4067   22.4396   17.2699 C   0  0  0  0  0  0  0  0  0  0  0  0
   25.3536   23.8799   17.7294 Cl  0  0  0  0  0  0  0  0  0  0  0  0
   26.4533   20.9445   17.1292 N   0  0  0  0  0  0  0  0  0  0  0  0
   26.4097   20.0094   18.9726 I   0  0  0  0  0  0  0  0  0  0  0  0
  1  2  1  0
  2  3  2  3
  3  4  1  0
  4  5  2  3
  5  6  1  0
  6  7  1  0
  5  8  1  0
  8  9  1  0
M  END
$$$$
