
     RDKit          3D

  9  8  0  0  0  0  0  0  0  0999 V2000
   36.3954   20.4498   22.6997 Cl  0  0  0  0  0  0  0  0  0  0  0  0
   34.8502   19.7682   23.1357 C   0  0  0  0  0  0  0  0  0  0  0  0
   33.7636   20.4666   22.9430 C   0  0  0  0  0  0  0  0  0  0  0  0
   32.4805   19.9179   23.4022 C   0  0  0  0  0  0  0  0  0  0  0  0
   31.3911   20.6424   23.2908 C   0  0  0  0  0  0  0  0  0  0  0  0
   30.1423   20.1384   23.9095 C   0  0  0  0  0  0  0  0  0  0  0  0
   29.5145   18.7465   22.9871 Cl  0  0  0  0  0  0  0  0  0  0  0  0
   31.4605   21.8605   22.5904 N   0  0  0  0  0  0  0  0  0  0  0  0
   29.8729   22.4797   21.4198 I   0  0  0  0  0  0  0  0  0  0  0  0
  1  2  1  0
  2  3  2  3
  3  4  1  0
  4  5  2  3
  5  6  1  0
  6  7  1  0
  5  8  1  0
  8  9  1  0
M  END
$$$$
