
     RDKit          3D

 20 21  0  0  0  0  0  0  0  0999 V2000
  126.3800  104.3953   69.4592 C   0  0  0  0  0  0  0  0  0  0  0  0
  127.4245  103.6123   68.9526 O   0  0  0  0  0  0  0  0  0  0  0  0
  128.4209  103.1552   69.7924 C   0  0  0  0  0  0  0  0  0  0  0  0
  128.3191  103.4130   71.1374 C   0  0  0  0  0  0  0  0  0  0  0  0
  129.2983  102.9674   71.9879 C   0  0  0  0  0  0  0  0  0  0  0  0
  129.2343  103.2654   73.7546 S   0  0  0  0  0  0  0  0  0  0  0  0
  128.9752  101.7110   74.6507 C   0  0  0  0  0  0  0  0  0  0  0  0
  130.3716  102.2669   71.4812 C   0  0  0  0  0  0  0  0  0  0  0  0
  130.4592  102.0141   70.1142 C   0  0  0  0  0  0  0  0  0  0  0  0
  129.4807  102.4573   69.2506 C   0  0  0  0  0  0  0  0  0  0  0  0
  129.5101  102.2281   67.8143 C   0  0  0  0  0  0  0  0  0  0  0  0
  129.5775  101.0446   67.4090 O   0  0  0  0  0  0  0  0  0  0  0  0
  129.4666  103.2706   66.8538 N   0  0  0  0  0  0  0  0  0  0  0  0
  129.8663  104.5982   67.1903 C   0  0  0  0  0  0  0  0  0  0  0  0
  130.6444  105.2970   66.1309 C   0  0  0  0  0  0  0  0  0  0  0  0
  130.2076  104.9441   64.7297 C   0  0  0  0  0  0  0  0  0  0  0  0
  131.1227  105.5785   63.7205 C   0  0  0  0  0  0  0  0  0  0  0  0
  128.9136  105.4431   64.5377 O   0  0  0  0  0  0  0  0  0  0  0  0
  130.1446  103.4426   64.5799 C   0  0  0  0  0  0  0  0  0  0  0  0
  129.0015  102.9742   65.4897 C   0  0  0  0  0  0  0  0  0  0  0  0
  1  2  1  0
  2  3  1  0
  3  4  2  0
  4  5  1  0
  5  6  1  0
  6  7  1  0
  5  8  2  0
  8  9  1  0
  9 10  2  0
 10 11  1  0
 11 12  2  0
 11 13  1  0
 13 14  1  0
 14 15  1  0
 15 16  1  0
 16 17  1  0
 16 18  1  0
 16 19  1  0
 19 20  1  0
 10  3  1  0
 20 13  1  0
M  END
$$$$
