
     RDKit          3D

 20 21  0  0  0  0  0  0  0  0999 V2000
-21081464.000019246166.0000-20901342.0000 C   0  0  0  0  0  0  0  0  0  0  0  0
-21081472.000019246168.0000-20901342.0000 O   0  0  0  0  0  0  0  0  0  0  0  0
-21081466.000019246168.0000-20901344.0000 C   0  0  0  0  0  0  0  0  0  0  0  0
-21081470.000019246166.0000-20901344.0000 C   0  0  0  0  0  0  0  0  0  0  0  0
-21081468.000019246168.0000-20901344.0000 C   0  0  0  0  0  0  0  0  0  0  0  0
-21081472.000019246160.0000-20901340.0000 S   0  0  0  0  0  0  0  0  0  0  0  0
-21081472.000019246164.0000-20901350.0000 C   0  0  0  0  0  0  0  0  0  0  0  0
-21081472.000019246160.0000-20901340.0000 C   0  0  0  0  0  0  0  0  0  0  0  0
-21081472.000019246170.0000-20901344.0000 C   0  0  0  0  0  0  0  0  0  0  0  0
-21081466.000019246168.0000-20901344.0000 C   0  0  0  0  0  0  0  0  0  0  0  0
-21081472.000019246168.0000-20901342.0000 C   0  0  0  0  0  0  0  0  0  0  0  0
-21081472.000019246168.0000-20901342.0000 O   0  0  0  0  0  0  0  0  0  0  0  0
-21081466.000019246168.0000-20901346.0000 N   0  0  0  0  0  0  0  0  0  0  0  0
-21081476.000019246170.0000-20901350.0000 C   0  0  0  0  0  0  0  0  0  0  0  0
-21081472.000019246166.0000-20901348.0000 C   0  0  0  0  0  0  0  0  0  0  0  0
-21081476.000019246162.0000-20901350.0000 C   0  0  0  0  0  0  0  0  0  0  0  0
-21081476.000019246162.0000-20901350.0000 C   0  0  0  0  0  0  0  0  0  0  0  0
-21081464.000019246168.0000-20901344.0000 O   0  0  0  0  0  0  0  0  0  0  0  0
-21081472.000019246166.0000-20901348.0000 C   0  0  0  0  0  0  0  0  0  0  0  0
-21081466.000019246168.0000-20901346.0000 C   0  0  0  0  0  0  0  0  0  0  0  0
  1  2  1  0
  2  3  1  0
  3  4  2  0
  4  5  1  0
  5  6  1  0
  6  7  1  0
  5  8  2  0
  8  9  1  0
  9 10  2  0
 10 11  1  0
 11 12  2  0
 11 13  1  0
 13 14  1  0
 14 15  1  0
 15 16  1  0
 16 17  1  0
 16 18  1  0
 16 19  1  0
 19 20  1  0
 10  3  1  0
 20 13  1  0
M  END
$$$$
