
     RDKit          3D

 22 24  0  0  0  0  0  0  0  0999 V2000
  169.3549  143.2674  153.1622 C   0  0  0  0  0  0  0  0  0  0  0  0
  168.4929  143.6505  154.3644 C   0  0  0  0  0  0  0  0  0  0  0  0
  169.1296  144.6781  155.1800 C   0  0  0  0  0  0  0  0  0  0  0  0
  169.5585  146.2820  154.6066 Cl  0  0  0  0  0  0  0  0  0  0  0  0
  169.3096  144.1779  156.3873 C   0  0  0  0  0  0  0  0  0  0  0  0
  168.8093  142.8110  156.4496 C   0  0  0  0  0  0  0  0  0  0  0  0
  168.8318  141.9338  157.6460 C   0  0  0  0  0  0  0  0  0  0  0  0
  169.4992  142.3123  158.7392 N   0  0  0  0  0  0  0  0  0  0  0  0
  169.5643  141.5617  159.8835 C   0  0  0  0  0  0  0  0  0  0  0  0
  170.3212  142.0540  160.9884 N   0  0  0  0  0  0  0  0  0  0  0  0
  171.4956  142.9064  160.7553 C   0  0  0  0  0  0  0  0  0  0  0  0
  170.9780  144.3225  160.6807 C   0  0  0  0  0  0  0  0  0  0  0  0
  171.5187  144.8423  159.4753 O   0  0  0  0  0  0  0  0  0  0  0  0
  168.9037  140.3704  159.8785 C   0  0  0  0  0  0  0  0  0  0  0  0
  168.9364  139.5751  161.0134 C   0  0  0  0  0  0  0  0  0  0  0  0
  168.2556  138.3745  160.9775 C   0  0  0  0  0  0  0  0  0  0  0  0
  167.5627  137.9616  159.8668 C   0  0  0  0  0  0  0  0  0  0  0  0
  167.5373  138.7549  158.7532 C   0  0  0  0  0  0  0  0  0  0  0  0
  168.2141  139.9619  158.7710 C   0  0  0  0  0  0  0  0  0  0  0  0
  168.1938  140.7574  157.6759 N   0  0  0  0  0  0  0  0  0  0  0  0
  168.3269  142.4972  155.2638 C   0  0  0  0  0  0  0  0  0  0  0  0
  167.7585  141.2131  154.9907 N   0  0  0  0  0  0  0  0  0  0  0  0
  1  2  1  0
  2  3  1  0
  3  4  1  0
  3  5  2  0
  5  6  1  0
  6  7  1  0
  7  8  2  0
  8  9  1  0
  9 10  1  0
 10 11  1  0
 11 12  1  0
 12 13  1  0
  9 14  2  0
 14 15  1  0
 15 16  2  0
 16 17  1  0
 17 18  2  0
 18 19  1  0
 19 20  2  0
  6 21  2  0
 21 22  1  0
 21  2  1  0
 20  7  1  0
 19 14  1  0
M  END
$$$$
