
     RDKit          3D

 21 22  0  0  0  0  0  0  0  0999 V2000
   -4.1545   51.6344    9.6850 C   0  0  0  0  0  0  0  0  0  0  0  0
   -3.8788   52.6246   10.7945 C   0  0  0  0  0  0  0  0  0  0  0  0
   -2.5716   52.4082   11.2883 N   0  0  0  0  0  0  0  0  0  0  0  0
   -1.6273   53.4552   11.1728 C   0  0  0  0  0  0  0  0  0  0  0  0
   -2.3369   54.7288   11.5542 C   0  0  0  0  0  0  0  0  0  0  0  0
   -3.3564   55.2244   10.7665 C   0  0  0  0  0  0  0  0  0  0  0  0
   -4.0389   56.3918   11.0757 C   0  0  0  0  0  0  0  0  0  0  0  0
   -3.6605   57.0609   12.2220 C   0  0  0  0  0  0  0  0  0  0  0  0
   -2.6466   56.5997   13.0370 C   0  0  0  0  0  0  0  0  0  0  0  0
   -2.2890   57.3652   14.2537 C   0  0  0  0  0  0  0  0  0  0  0  0
   -0.9097   57.3198   14.4028 F   0  0  0  0  0  0  0  0  0  0  0  0
   -2.6126   58.7022   14.0653 F   0  0  0  0  0  0  0  0  0  0  0  0
   -2.8825   56.8689   15.3803 F   0  0  0  0  0  0  0  0  0  0  0  0
   -1.9978   55.4263   12.6795 C   0  0  0  0  0  0  0  0  0  0  0  0
   -4.8558   52.4900   11.9089 C   0  0  0  0  0  0  0  0  0  0  0  0
   -5.2759   53.6328   12.5668 C   0  0  0  0  0  0  0  0  0  0  0  0
   -6.1890   53.5849   13.6231 C   0  0  0  0  0  0  0  0  0  0  0  0
   -6.6812   52.3660   14.0164 C   0  0  0  0  0  0  0  0  0  0  0  0
   -6.2852   51.2241   13.3867 C   0  0  0  0  0  0  0  0  0  0  0  0
   -6.7785   50.0198   13.7833 F   0  0  0  0  0  0  0  0  0  0  0  0
   -5.3751   51.3035   12.3385 C   0  0  0  0  0  0  0  0  0  0  0  0
  1  2  1  0
  2  3  1  0
  3  4  1  0
  4  5  1  0
  5  6  2  0
  6  7  1  0
  7  8  2  0
  8  9  1  0
  9 10  1  0
 10 11  1  0
 10 12  1  0
 10 13  1  0
  9 14  2  0
  2 15  1  0
 15 16  2  0
 16 17  1  0
 17 18  2  0
 18 19  1  0
 19 20  1  0
 19 21  2  0
 14  5  1  0
 21 15  1  0
M  END
$$$$
