
     RDKit          3D

 18 19  0  0  0  0  0  0  0  0999 V2000
  244.7966   65.2234   74.6291 C   0  0  0  0  0  0  0  0  0  0  0  0
  244.6382   66.3234   74.1633 C   0  0  0  0  0  0  0  0  0  0  0  0
  244.4607   67.6761   73.6117 C   0  0  0  0  0  0  0  0  0  0  0  0
  245.8302   67.9175   72.4241 S   0  0  0  0  0  0  0  0  0  0  0  0
  245.9854   69.7144   72.1702 C   0  0  0  0  0  0  0  0  0  0  0  0
  244.8371   70.2534   71.3593 C   0  0  0  0  0  0  0  0  0  0  0  0
  244.6654   71.6572   71.6594 N   0  0  0  0  0  0  0  0  0  0  0  0
  245.7380   72.5672   71.6167 C   0  0  0  0  0  0  0  0  0  0  0  0
  246.7328   72.3190   70.6668 C   0  0  0  0  0  0  0  0  0  0  0  0
  247.8068   73.1984   70.6492 C   0  0  0  0  0  0  0  0  0  0  0  0
  247.9012   74.2309   71.4878 N   0  0  0  0  0  0  0  0  0  0  0  0
  246.9416   74.4694   72.4043 C   0  0  0  0  0  0  0  0  0  0  0  0
  247.0608   75.5609   73.2709 C   0  0  0  0  0  0  0  0  0  0  0  0
  246.0675   75.7859   74.1942 C   0  0  0  0  0  0  0  0  0  0  0  0
  246.1961   77.1591   75.2967 Cl  0  0  0  0  0  0  0  0  0  0  0  0
  244.9619   74.9914   74.3088 C   0  0  0  0  0  0  0  0  0  0  0  0
  244.8759   73.9024   73.4203 C   0  0  0  0  0  0  0  0  0  0  0  0
  245.8482   73.6447   72.4837 C   0  0  0  0  0  0  0  0  0  0  0  0
  1  2  3  0
  2  3  1  0
  3  4  1  0
  4  5  1  0
  5  6  1  0
  6  7  1  0
  7  8  1  0
  8  9  2  0
  9 10  1  0
 10 11  2  0
 11 12  1  0
 12 13  2  0
 13 14  1  0
 14 15  1  0
 14 16  2  0
 16 17  1  0
 17 18  2  0
 18  8  1  0
 18 12  1  0
M  END
$$$$
