
     RDKit          3D

 21 23  0  0  0  0  0  0  0  0999 V2000
   16.2666   28.3976   24.6162 C   0  0  0  0  0  0  0  0  0  0  0  0
   15.0268   28.8335   25.3026 C   0  0  0  0  0  0  0  0  0  0  0  0
   14.1404   29.6330   24.6113 C   0  0  0  0  0  0  0  0  0  0  0  0
   12.9847   30.0609   25.1991 C   0  0  0  0  0  0  0  0  0  0  0  0
   12.0157   30.9278   24.4613 C   0  0  0  0  0  0  0  0  0  0  0  0
   11.5584   32.1034   25.0077 C   0  0  0  0  0  0  0  0  0  0  0  0
   10.5125   32.6717   23.7837 S   0  0  0  0  0  0  0  0  0  0  0  0
   10.7230   31.3728   22.6483 C   0  0  0  0  0  0  0  0  0  0  0  0
   10.0949   31.2567   21.3592 N   0  0  0  0  0  0  0  0  0  0  0  0
    9.4878   32.3200   20.6952 C   0  0  0  0  0  0  0  0  0  0  0  0
    9.9918   33.5819   20.6849 C   0  0  0  0  0  0  0  0  0  0  0  0
    9.3546   34.6420   20.0148 C   0  0  0  0  0  0  0  0  0  0  0  0
    8.1823   34.4021   19.3451 C   0  0  0  0  0  0  0  0  0  0  0  0
    7.5627   35.4570   18.6875 O   0  0  0  0  0  0  0  0  0  0  0  0
    7.6425   33.1293   19.3356 C   0  0  0  0  0  0  0  0  0  0  0  0
    8.2902   32.1144   20.0007 C   0  0  0  0  0  0  0  0  0  0  0  0
   11.5705   30.6097   23.2871 N   0  0  0  0  0  0  0  0  0  0  0  0
   12.7448   29.6630   26.5007 C   0  0  0  0  0  0  0  0  0  0  0  0
   13.6236   28.8651   27.1991 C   0  0  0  0  0  0  0  0  0  0  0  0
   14.7870   28.4392   26.5957 C   0  0  0  0  0  0  0  0  0  0  0  0
   15.6556   27.6544   27.2769 F   0  0  0  0  0  0  0  0  0  0  0  0
  1  2  1  0
  2  3  2  0
  3  4  1  0
  4  5  1  0
  5  6  2  0
  6  7  1  0
  7  8  1  0
  8  9  1  0
  9 10  1  0
 10 11  2  0
 11 12  1  0
 12 13  2  0
 13 14  1  0
 13 15  1  0
 15 16  2  0
  8 17  2  0
  4 18  2  0
 18 19  1  0
 19 20  2  0
 20 21  1  0
 20  2  1  0
 17  5  1  0
 16 10  1  0
M  END
$$$$
