
     RDKit          3D

 26 28  0  0  0  0  0  0  0  0999 V2000
   43.5959   40.5580   24.8704 C   0  0  0  0  0  0  0  0  0  0  0  0
   42.7275   40.5906   26.0697 C   0  0  0  0  0  0  0  0  0  0  0  0
   43.2115   40.0695   27.2461 C   0  0  0  0  0  0  0  0  0  0  0  0
   42.4180   40.0914   28.3725 C   0  0  0  0  0  0  0  0  0  0  0  0
   42.8158   39.6097   29.6285 N   0  0  0  0  0  0  0  0  0  0  0  0
   44.0399   38.9698   29.9474 C   0  0  0  0  0  0  0  0  0  0  0  0
   44.7486   38.2620   28.9667 C   0  0  0  0  0  0  0  0  0  0  0  0
   45.9268   37.6142   29.2629 C   0  0  0  0  0  0  0  0  0  0  0  0
   46.4838   37.6156   30.5223 C   0  0  0  0  0  0  0  0  0  0  0  0
   47.7582   36.9254   30.8472 C   0  0  0  0  0  0  0  0  0  0  0  0
   47.6541   35.4920   30.9077 N   0  0  0  0  0  0  0  0  0  0  0  0
   48.7478   34.6377   31.1943 C   0  0  0  0  0  0  0  0  0  0  0  0
   48.6373   33.3890   31.2072 O   0  0  0  0  0  0  0  0  0  0  0  0
   50.0156   35.1468   31.4794 O   0  0  0  0  0  1  0  0  0  0  0  0
   45.7834   38.3181   31.5050 C   0  0  0  0  0  0  0  0  0  0  0  0
   44.6034   38.9650   31.2038 C   0  0  0  0  0  0  0  0  0  0  0  0
   41.1921   40.6440   28.2041 N   0  0  0  0  0  0  0  0  0  0  0  0
   40.2309   40.8045   29.0743 N   0  0  0  0  0  0  0  0  0  0  0  0
   39.1630   41.3996   28.5117 C   0  0  0  0  0  0  0  0  0  0  0  0
   37.9230   41.7070   29.2670 C   0  0  0  0  0  0  0  0  0  0  0  0
   38.1742   42.6549   30.2347 F   0  0  0  0  0  0  0  0  0  0  0  0
   37.3828   40.5476   29.7820 F   0  0  0  0  0  0  0  0  0  0  0  0
   36.9898   42.2528   28.3838 F   0  0  0  0  0  0  0  0  0  0  0  0
   39.4785   41.6197   27.2250 N   0  0  0  0  0  0  0  0  0  0  0  0
   40.7369   41.1469   27.0499 C   0  0  0  0  0  0  0  0  0  0  0  0
   41.5083   41.1274   25.9514 N   0  0  0  0  0  0  0  0  0  0  0  0
  1  2  1  0
  2  3  1  0
  3  4  2  0
  4  5  1  0
  5  6  1  0
  6  7  2  0
  7  8  1  0
  8  9  2  0
  9 10  1  0
 10 11  1  0
 11 12  1  0
 12 13  2  0
 12 14  1  0
  9 15  1  0
 15 16  2  0
  4 17  1  0
 17 18  1  0
 18 19  2  0
 19 20  1  0
 20 21  1  0
 20 22  1  0
 20 23  1  0
 19 24  1  0
 24 25  2  0
 25 26  1  0
 26  2  2  0
 16  6  1  0
 25 17  1  0
M  CHG  1  14  -1
M  END
$$$$
