
     RDKit          3D

 22 23  0  0  0  0  0  0  0  0999 V2000
    3.5096   33.1859   -2.1348 C   0  0  0  0  0  0  0  0  0  0  0  0
    2.9275   32.2952   -3.1987 C   0  0  0  0  0  0  0  0  0  0  0  0
    2.5852   32.8325   -4.4047 C   0  0  0  0  0  0  0  0  0  0  0  0
    2.0484   32.0188   -5.3900 C   0  0  0  0  0  0  0  0  0  0  0  0
    1.8454   30.6728   -5.1948 C   0  0  0  0  0  0  0  0  0  0  0  0
    1.2741   29.8533   -6.2687 C   0  0  0  0  0  0  0  0  0  0  0  0
    0.4367   30.2703   -7.2834 C   0  0  0  0  0  0  0  0  0  0  0  0
    0.1670   29.1557   -8.0420 C   0  0  0  0  0  0  0  0  0  0  0  0
    0.8423   28.0974   -7.4733 C   0  0  0  0  0  0  0  0  0  0  0  0
    0.8270   26.6987   -7.9781 C   0  0  0  0  0  0  0  0  0  0  0  0
    1.8786   25.9323   -7.3892 N   0  0  0  0  0  0  0  0  0  0  0  0
    2.8973   25.6579   -8.3830 C   0  0  0  0  0  0  0  0  0  0  0  0
    3.5726   26.9908   -8.7019 C   0  0  0  0  0  0  0  0  0  0  0  0
    4.8898   27.0029   -8.1248 N   0  0  0  0  0  4  0  0  0  0  0  0
    5.5322   28.2823   -8.3711 C   0  0  0  0  0  0  0  0  0  0  0  0
    6.8972   28.3007   -7.7467 C   0  0  1  0  0  0  0  0  0  0  0  0
    7.3979   29.7162   -7.6317 C   0  0  0  0  0  0  0  0  0  0  0  0
    6.8610   27.6778   -6.5044 O   0  0  0  0  0  0  0  0  0  0  0  0
    1.4709   28.5877   -6.4338 O   0  0  0  0  0  0  0  0  0  0  0  0
    2.1913   30.1338   -3.9781 C   0  0  0  0  0  0  0  0  0  0  0  0
    2.7341   30.9494   -2.9777 C   0  0  0  0  0  0  0  0  0  0  0  0
    3.1832   30.2924   -1.4216 Cl  0  0  0  0  0  0  0  0  0  0  0  0
  1  2  1  0
  2  3  2  0
  3  4  1  0
  4  5  2  0
  5  6  1  0
  6  7  2  0
  7  8  1  0
  8  9  2  0
  9 10  1  0
 10 11  1  0
 11 12  1  0
 12 13  1  0
 13 14  1  0
 14 15  1  0
 15 16  1  0
 16 17  1  1
 16 18  1  0
  9 19  1  0
  5 20  1  0
 20 21  2  0
 21 22  1  0
 21  2  1  0
 19  6  1  0
M  CHG  1  14   1
M  END
$$$$
