
     RDKit          3D

 24 26  0  0  0  0  0  0  0  0999 V2000
   34.3550   23.8708   22.3607 C   0  0  0  0  0  0  0  0  0  0  0  0
   35.2090   23.2543   23.2674 O   0  0  0  0  0  0  0  0  0  0  0  0
   36.1320   22.4193   22.6717 C   0  0  0  0  0  0  0  0  0  0  0  0
   37.0784   21.7525   23.6299 C   0  0  2  0  0  0  0  0  0  0  0  0
   38.1078   20.9856   22.8097 C   0  0  0  0  0  0  0  0  0  0  0  0
   36.4662   20.8641   24.4985 O   0  0  0  0  0  0  0  0  0  0  0  0
   35.5740   21.1218   25.5103 C   0  0  0  0  0  0  0  0  0  0  0  0
   36.0538   21.4958   26.7639 C   0  0  0  0  0  0  0  0  0  0  0  0
   37.4393   21.6089   26.9882 O   0  0  0  0  0  0  0  0  0  0  0  0
   35.1611   21.7523   27.7767 C   0  0  0  0  0  0  0  0  0  0  0  0
   33.8013   21.6480   27.5802 C   0  0  0  0  0  0  0  0  0  0  0  0
   33.3071   21.2793   26.3482 C   0  0  0  0  0  0  0  0  0  0  0  0
   31.9470   21.1651   26.1249 C   0  0  0  0  0  0  0  0  0  0  0  0
   31.1139   21.3997   27.0521 O   0  0  0  0  0  0  0  0  0  0  0  0
   31.5458   20.7886   24.8613 C   0  0  0  0  0  0  0  0  0  0  0  0
   30.2103   20.6504   24.5507 C   0  0  0  0  0  0  0  0  0  0  0  0
   29.3042   20.9106   25.5769 O   0  0  0  0  0  0  0  0  0  0  0  0
   29.7871   20.2722   23.2840 C   0  0  0  0  0  0  0  0  0  0  0  0
   30.7054   20.0205   22.2861 C   0  0  0  0  0  0  0  0  0  0  0  0
   30.2792   19.6388   21.0076 O   0  0  0  0  0  0  0  0  0  0  0  0
   32.0440   20.1560   22.5870 C   0  0  0  0  0  0  0  0  0  0  0  0
   32.4667   20.5379   23.8665 C   0  0  0  0  0  0  0  0  0  0  0  0
   33.7380   20.6642   24.1433 O   0  0  0  0  0  0  0  0  0  0  0  0
   34.2165   21.0173   25.3151 C   0  0  0  0  0  0  0  0  0  0  0  0
  1  2  1  0
  2  3  1  0
  3  4  1  0
  4  5  1  6
  4  6  1  0
  6  7  1  0
  7  8  2  0
  8  9  1  0
  8 10  1  0
 10 11  2  0
 11 12  1  0
 12 13  1  0
 13 14  2  0
 13 15  1  0
 15 16  2  0
 16 17  1  0
 16 18  1  0
 18 19  2  0
 19 20  1  0
 19 21  1  0
 21 22  2  0
 22 23  1  0
 23 24  1  0
 24  7  1  0
 24 12  2  0
 22 15  1  0
M  END
$$$$
