
     RDKit          3D

 20 21  0  0  0  0  0  0  0  0999 V2000
  155.1107  146.6524  142.5450 C   0  0  0  0  0  0  0  0  0  0  0  0
  153.8072  147.2832  142.1796 C   0  0  0  0  0  0  0  0  0  0  0  0
  153.2270  148.0771  143.2827 N   0  0  0  0  0  0  0  0  0  0  0  0
  152.1131  147.4810  143.9256 C   0  0  0  0  0  0  0  0  0  0  0  0
  151.3773  148.1371  144.8401 N   0  0  0  0  0  0  0  0  0  0  0  0
  150.2970  147.6049  145.4693 C   0  0  0  0  0  0  0  0  0  0  0  0
  149.5416  148.3693  146.3997 N   0  0  0  0  0  0  0  0  0  0  0  0
  148.4257  147.9328  147.1637 C   0  0  0  0  0  0  0  0  0  0  0  0
  147.4146  147.2249  146.3621 C   0  0  0  0  0  0  0  0  0  0  0  0
  146.3224  146.6325  146.7545 C   0  0  0  0  0  0  0  0  0  0  0  0
  145.7970  146.8204  148.4423 Cl  0  0  0  0  0  0  0  0  0  0  0  0
  145.4981  145.8006  145.8592 C   0  0  0  0  0  0  0  0  0  0  0  0
  145.8051  146.2802  144.1476 Cl  0  0  0  0  0  0  0  0  0  0  0  0
  149.9916  146.3513  145.1218 N   0  0  0  0  0  0  0  0  0  0  0  0
  150.6488  145.6095  144.2305 C   0  0  0  0  0  0  0  0  0  0  0  0
  150.2619  144.3212  143.9261 C   0  0  0  0  0  0  0  0  0  0  0  0
  150.9345  143.5596  143.0059 C   0  0  0  0  0  0  0  0  0  0  0  0
  152.0073  144.1078  142.3906 C   0  0  0  0  0  0  0  0  0  0  0  0
  152.4185  145.4131  142.6833 C   0  0  0  0  0  0  0  0  0  0  0  0
  151.7590  146.1936  143.6010 C   0  0  0  0  0  0  0  0  0  0  0  0
  1  2  1  0
  2  3  1  0
  3  4  1  0
  4  5  2  0
  5  6  1  0
  6  7  1  0
  7  8  1  0
  8  9  1  0
  9 10  2  3
 10 11  1  0
 10 12  1  0
 12 13  1  0
  6 14  2  0
 14 15  1  0
 15 16  2  0
 16 17  1  0
 17 18  2  0
 18 19  1  0
 19 20  2  0
 20  4  1  0
 20 15  1  0
M  END
$$$$
