
     RDKit          3D

 24 26  0  0  0  0  0  0  0  0999 V2000
  127.4897  119.6604  148.8720 C   0  0  0  0  0  0  0  0  0  0  0  0
  127.1244  118.4459  149.4686 O   0  0  0  0  0  0  0  0  0  0  0  0
  126.5904  117.4053  148.7429 C   0  0  0  0  0  0  0  0  0  0  0  0
  126.2280  116.1877  149.2885 C   0  0  0  0  0  0  0  0  0  0  0  0
  125.7025  115.2218  148.4564 C   0  0  0  0  0  0  0  0  0  0  0  0
  125.5225  115.4175  147.1028 C   0  0  0  0  0  0  0  0  0  0  0  0
  124.9717  114.4288  146.1837 C   0  0  0  0  0  0  0  0  0  0  0  0
  124.5323  113.1837  146.5713 C   0  0  0  0  0  0  0  0  0  0  0  0
  124.0093  112.2249  145.7475 C   0  0  0  0  0  0  0  0  0  0  0  0
  123.6205  111.0975  146.1535 O   0  0  0  0  0  0  0  0  0  0  0  0
  123.9028  112.5097  144.4005 C   0  0  0  0  0  0  0  0  0  0  0  0
  123.4004  111.6444  143.4726 C   0  0  0  0  0  0  0  0  0  0  0  0
  122.9710  110.4004  143.9186 O   0  0  0  0  0  0  0  0  0  0  0  0
  123.3502  112.0590  142.1489 C   0  0  0  0  0  0  0  0  0  0  0  0
  122.8235  111.1198  141.2548 O   0  0  0  0  0  0  0  0  0  0  0  0
  123.1393  109.7537  141.3214 C   0  0  0  0  0  0  0  0  0  0  0  0
  123.8034  113.3277  141.7868 C   0  0  0  0  0  0  0  0  0  0  0  0
  123.6720  113.5548  140.4303 O   0  0  0  0  0  0  0  0  0  0  0  0
  124.0168  114.7636  139.7987 C   0  0  0  0  0  0  0  0  0  0  0  0
  124.3072  114.1872  142.7381 C   0  0  0  0  0  0  0  0  0  0  0  0
  124.3597  113.7778  144.0625 C   0  0  0  0  0  0  0  0  0  0  0  0
  124.8524  114.6574  144.8966 O   0  0  0  0  0  0  0  0  0  0  0  0
  125.8915  116.6400  146.5825 C   0  0  0  0  0  0  0  0  0  0  0  0
  126.4224  117.6238  147.4070 C   0  0  0  0  0  0  0  0  0  0  0  0
  1  2  1  0
  2  3  1  0
  3  4  2  0
  4  5  1  0
  5  6  2  0
  6  7  1  0
  7  8  2  0
  8  9  1  0
  9 10  2  0
  9 11  1  0
 11 12  2  0
 12 13  1  0
 12 14  1  0
 14 15  1  0
 15 16  1  0
 14 17  2  0
 17 18  1  0
 18 19  1  0
 17 20  1  0
 20 21  2  0
 21 22  1  0
  6 23  1  0
 23 24  2  0
 24  3  1  0
 22  7  1  0
 21 11  1  0
M  END
$$$$
