
     RDKit          3D

 23 24  0  0  0  0  0  0  0  0999 V2000
   39.0380   28.6371   30.7489 O   0  0  0  0  0  0  0  0  0  0  0  0
   37.8574   27.9665   30.5791 C   0  0  0  0  0  0  0  0  0  0  0  0
   38.0524   26.6035   29.8586 C   0  0  0  0  0  0  0  0  0  0  0  0
   38.8020   25.7670   30.8560 N   0  0  0  0  0  0  0  0  0  0  0  0
   40.0077   25.1188   30.4771 C   0  0  0  0  0  0  0  0  0  0  0  0
   40.4284   25.3321   29.2392 N   0  0  0  0  0  0  0  0  0  0  0  0
   41.4407   24.8776   28.5158 C   0  0  0  0  0  0  0  0  0  0  0  0
   41.6971   25.3770   27.2126 N   0  0  0  0  0  0  0  0  0  0  0  0
   42.7009   25.0622   26.3344 C   0  0  0  0  0  0  0  0  0  0  0  0
   43.5758   23.9092   26.2378 C   0  0  0  0  0  0  0  0  0  0  0  0
   44.3191   22.9184   26.1723 C   0  0  0  0  0  0  0  0  0  0  0  0
   45.2994   21.6085   26.0759 Cl  0  0  0  0  0  0  0  0  0  0  0  0
   42.8665   25.9652   25.3136 C   0  0  0  0  0  0  0  0  0  0  0  0
   43.8216   25.7119   24.3301 C   0  0  0  0  0  0  0  0  0  0  0  0
   44.2448   26.2984   23.3059 C   0  0  0  0  0  0  0  0  0  0  0  0
   44.8515   27.2100   22.0460 Cl  0  0  0  0  0  0  0  0  0  0  0  0
   42.3830   23.7766   29.4164 S   0  0  0  0  0  3  0  0  0  0  0  0
   41.7973   23.5560   30.9830 C   0  0  0  0  0  0  0  0  0  0  0  0
   40.6361   24.2698   31.3738 C   0  0  0  0  0  0  0  0  0  0  0  0
   40.1324   24.1529   32.6035 C   0  0  0  0  0  0  0  0  0  0  0  0
   40.5978   23.3205   33.6786 C   0  0  0  0  0  0  0  0  0  0  0  0
   41.6342   22.4907   33.6477 C   0  0  0  0  0  0  0  0  0  0  0  0
   42.4726   22.5291   32.0552 S   0  0  0  0  0  4  0  0  0  0  0  0
  1  2  1  0
  2  3  1  0
  3  4  1  0
  4  5  1  0
  5  6  2  0
  6  7  1  0
  7  8  1  0
  8  9  1  0
  9 10  1  0
 10 11  3  0
 11 12  1  0
  9 13  2  3
 13 14  1  0
 14 15  2  3
 15 16  1  0
  7 17  2  0
 17 18  1  0
 18 19  1  0
 19 20  2  0
 20 21  1  0
 21 22  2  0
 22 23  1  0
 19  5  1  0
 23 18  2  0
M  CHG  1  17   1
M  END
$$$$
