
     RDKit          3D

 20 21  0  0  0  0  0  0  0  0999 V2000
   -0.3700   -4.5705  -56.5411 C   0  0  0  0  0  0  0  0  0  0  0  0
    0.1802   -5.4036  -57.6855 C   0  0  0  0  0  0  0  0  0  0  0  0
    1.4483   -6.4522  -57.0048 Cl  0  0  0  0  0  0  0  0  0  0  0  0
    0.7319   -4.5138  -58.6859 C   0  0  0  0  0  0  0  0  0  0  0  0
    2.1446   -4.3459  -58.6526 N   0  0  0  0  0  0  0  0  0  0  0  0
    0.1508   -3.8194  -59.6385 C   0  0  0  0  0  0  0  0  0  0  0  0
   -1.2782   -3.7891  -59.9182 C   0  0  0  0  0  0  0  0  0  0  0  0
   -2.2968   -4.5250  -59.4766 C   0  0  0  0  0  0  0  0  0  0  0  0
   -2.1159   -5.6036  -58.5314 N   0  0  0  0  0  0  0  0  0  0  0  0
   -0.9208   -6.3177  -58.1754 C   0  0  0  0  0  0  0  0  0  0  0  0
   -1.2286   -7.1859  -57.0609 N   0  0  0  0  0  0  0  0  0  0  0  0
   -0.4823   -7.1001  -59.2811 N   0  0  0  0  0  0  0  0  0  0  0  0
   -1.0401   -8.0161  -59.9395 C   0  0  0  0  0  0  0  0  0  0  0  0
   -1.8398   -9.0620  -59.2767 C   0  0  0  0  0  0  0  0  0  0  0  0
   -3.2496   -9.1914  -59.8618 C   0  0  0  0  0  0  0  0  0  0  0  0
   -3.9513  -10.0575  -59.0340 O   0  0  0  0  0  0  0  0  0  0  0  0
   -0.9041   -8.0478  -61.3872 C   0  0  0  0  0  0  0  0  0  0  0  0
   -0.3978   -7.3295  -62.3649 C   0  0  0  0  0  0  0  0  0  0  0  0
   -0.8208   -8.2771  -63.3869 C   0  0  0  0  0  0  0  0  0  0  0  0
   -1.3379   -9.0153  -62.4118 C   0  0  0  0  0  0  0  0  0  0  0  0
  1  2  1  0
  2  3  1  0
  2  4  1  0
  4  5  1  0
  4  6  2  0
  6  7  1  0
  7  8  2  0
  8  9  1  0
  9 10  1  0
 10 11  1  0
 10 12  1  0
 12 13  2  3
 13 14  1  0
 14 15  1  0
 15 16  1  0
 13 17  1  0
 17 18  2  0
 18 19  1  0
 19 20  2  0
 10  2  1  0
 20 17  1  0
M  END
$$$$
