
     RDKit          3D

 18 19  0  0  0  0  0  0  0  0999 V2000
    0.5862   25.0957   -9.1387 C   0  0  0  0  0  0  0  0  0  0  0  0
    0.4293   26.3053   -8.2733 C   0  0  0  0  0  0  0  0  0  0  0  0
    1.3248   26.5056   -7.3321 C   0  0  0  0  0  0  0  0  0  0  0  0
    1.1906   27.5759   -6.4238 N   0  0  0  0  0  0  0  0  0  0  0  0
    2.1855   28.3517   -6.1962 C   0  0  0  0  0  0  0  0  0  0  0  0
    1.7120   29.6247   -5.5795 C   0  0  0  0  0  0  0  0  0  0  0  0
    2.8363   30.6330   -5.6269 C   0  0  0  0  0  0  0  0  0  0  0  0
    2.1102   32.2186   -5.9585 Cl  0  0  0  0  0  0  0  0  0  0  0  0
    3.6481   30.6916   -4.3796 C   0  0  0  0  0  0  0  0  0  0  0  0
    4.1473   32.0691   -4.0832 C   0  0  0  0  0  0  0  0  0  0  0  0
    3.8612   31.8710   -2.7368 O   0  0  0  0  0  0  0  0  0  0  0  0
    2.8741   30.9644   -3.1084 C   0  0  0  0  0  0  0  0  0  0  0  0
    1.3293   31.8040   -3.3685 Cl  0  0  0  0  0  0  0  0  0  0  0  0
    4.6508   29.6029   -4.2597 C   0  0  0  0  0  0  0  0  0  0  0  0
    5.3538   29.6158   -2.9405 C   0  0  0  0  0  0  0  0  0  0  0  0
    5.0694   28.6200   -5.0501 C   0  0  0  0  0  0  0  0  0  0  0  0
    4.7936   28.0838   -6.4122 C   0  0  0  0  0  0  0  0  0  0  0  0
    3.4029   27.7588   -6.5987 N   0  0  0  0  0  0  0  0  0  0  0  0
  1  2  1  0
  2  3  2  3
  3  4  1  0
  4  5  2  3
  5  6  1  0
  6  7  1  0
  7  8  1  0
  7  9  1  0
  9 10  1  0
 10 11  1  0
 11 12  1  0
 12 13  1  0
  9 14  1  0
 14 15  1  0
 14 16  2  0
 16 17  1  0
 17 18  1  0
 18  5  1  0
 12  9  1  0
M  END
$$$$
