
     RDKit          3D

 23 23  0  0  0  0  0  0  0  0999 V2000
  152.9850  142.1513  144.7280 O   0  0  0  0  0  0  0  0  0  0  0  0
  153.6858  143.3231  144.9709 C   0  0  0  0  0  0  0  0  0  0  0  0
  152.8355  144.5374  144.6914 C   0  0  0  0  0  0  0  0  0  0  0  0
  151.7325  144.2354  143.8159 N   0  0  0  0  0  0  0  0  0  0  0  0
  150.3457  144.4059  144.3236 C   0  0  0  0  0  0  0  0  0  0  0  0
  150.1688  145.3231  145.1728 N   0  0  0  0  0  0  0  0  0  0  0  0
  149.0921  145.8480  145.9058 C   0  0  0  0  0  0  0  0  0  0  0  0
  148.7040  147.1822  145.4041 N   0  0  0  0  0  0  0  0  0  0  0  0
  148.4557  148.1315  146.4555 C   0  0  0  0  0  0  0  0  0  0  0  0
  149.3002  149.1126  146.6337 C   0  0  0  0  0  0  0  0  0  0  0  0
  150.1993  149.5724  145.6018 C   0  0  0  0  0  0  0  0  0  0  0  0
  150.9444  150.6822  145.8152 C   0  0  0  0  0  0  0  0  0  0  0  0
  150.9155  151.4755  147.3573 Cl  0  0  0  0  0  0  0  0  0  0  0  0
  151.7683  151.1864  144.7116 C   0  0  0  0  0  0  0  0  0  0  0  0
  152.4526  149.8429  143.7568 Cl  0  0  0  0  0  0  0  0  0  0  0  0
  147.2605  147.9939  147.3114 C   0  0  0  0  0  0  0  0  0  0  0  0
  147.6187  146.7890  148.5917 S   0  0  0  0  0  1  0  0  0  0  0  0
  148.5968  147.4913  144.0338 C   0  0  0  0  0  0  0  0  0  0  0  0
  147.8254  146.8741  143.1351 C   0  0  0  0  0  0  0  0  0  0  0  0
  146.9347  145.7661  143.3595 C   0  0  0  0  0  0  0  0  0  0  0  0
  147.0423  144.4789  143.5007 C   0  0  0  0  0  0  0  0  0  0  0  0
  148.1190  143.5457  143.4936 C   0  0  0  0  0  0  0  0  0  0  0  0
  149.3755  143.4779  143.7952 C   0  0  0  0  0  0  0  0  0  0  0  0
  1  2  1  0
  2  3  1  0
  3  4  1  0
  4  5  1  0
  5  6  2  0
  6  7  1  0
  7  8  1  0
  8  9  1  0
  9 10  2  3
 10 11  1  0
 11 12  2  3
 12 13  1  0
 12 14  1  0
 14 15  1  0
  9 16  1  0
 16 17  1  0
  8 18  1  0
 18 19  2  0
 19 20  1  0
 20 21  2  0
 21 22  1  0
 22 23  2  0
 23  5  1  0
M  CHG  1  17   1
M  RAD  1  17   3
M  END
$$$$
