
     RDKit          3D

 18 19  0  0  0  0  0  0  0  0999 V2000
  129.1944  139.0709  156.6254 C   0  0  0  0  0  0  0  0  0  0  0  0
  130.3909  139.8814  156.1250 C   0  0  0  0  0  0  0  0  0  0  0  0
  129.9705  141.3273  155.9811 C   0  0  0  0  0  0  0  0  0  0  0  0
  129.5799  141.6702  154.6730 O   0  0  0  0  0  0  0  0  0  0  0  0
  129.1089  142.9077  154.3174 C   0  0  0  0  0  0  0  0  0  0  0  0
  129.0522  143.8283  155.1719 O   0  0  0  0  0  0  0  0  0  0  0  0
  128.6597  143.1962  152.9412 C   0  0  0  0  0  0  0  0  0  0  0  0
  128.7796  142.2694  151.9373 C   0  0  0  0  0  0  0  0  0  0  0  0
  128.3713  142.5038  150.6418 C   0  0  0  0  0  0  0  0  0  0  0  0
  128.5119  141.5251  149.6391 O   0  0  0  0  0  0  0  0  0  0  0  0
  127.8185  143.7345  150.3612 C   0  0  0  0  0  0  0  0  0  0  0  0
  127.4048  143.9773  149.0568 C   0  0  0  0  0  0  0  0  0  0  0  0
  126.8508  145.1906  148.7432 C   0  0  0  0  0  0  0  0  0  0  0  0
  126.7042  146.1651  149.7145 C   0  0  0  0  0  0  0  0  0  0  0  0
  127.1223  145.9055  151.0098 C   0  0  0  0  0  0  0  0  0  0  0  0
  127.6838  144.6956  151.3596 C   0  0  0  0  0  0  0  0  0  0  0  0
  128.1048  144.4239  152.6473 C   0  0  0  0  0  0  0  0  0  0  0  0
  127.9560  145.4041  153.6189 O   0  0  0  0  0  0  0  0  0  0  0  0
  1  2  1  0
  2  3  1  0
  3  4  1  0
  4  5  1  0
  5  6  2  0
  5  7  1  0
  7  8  2  0
  8  9  1  0
  9 10  1  0
  9 11  2  0
 11 12  1  0
 12 13  2  0
 13 14  1  0
 14 15  2  0
 15 16  1  0
 16 17  2  0
 17 18  1  0
 17  7  1  0
 16 11  1  0
M  END
$$$$
