
     RDKit          3D

 28 30  0  0  0  0  0  0  0  0999 V2000
  157.1806  152.0813  172.7085 C   0  0  0  0  0  0  0  0  0  0  0  0
  158.0673  151.1189  172.5709 C   0  0  0  0  0  0  0  0  0  0  0  0
  158.6805  150.5395  173.7022 N   0  0  0  0  0  0  0  0  0  0  0  0
  159.5107  149.4933  173.5939 O   0  0  0  0  0  0  0  0  0  0  0  0
  160.7986  149.7056  173.9838 C   0  0  0  0  0  0  0  0  0  0  0  0
  161.6164  150.4570  173.0517 N   0  0  0  0  0  0  0  0  0  0  0  0
  160.9847  151.4117  172.3835 O   0  0  0  0  0  0  0  0  0  0  0  0
  160.8713  151.2088  171.0180 C   0  0  0  0  0  0  0  0  0  0  0  0
  159.4726  151.6498  170.6221 C   0  0  0  0  0  0  0  0  0  0  0  0
  158.4504  150.6447  171.2120 C   0  0  0  0  0  0  0  0  0  0  0  0
  158.9139  149.2972  171.0392 C   0  0  0  0  0  0  0  0  0  0  0  0
  158.0146  149.0013  170.1606 C   0  0  0  0  0  0  0  0  0  0  0  0
  157.4247  150.3489  170.2387 C   0  0  0  0  0  0  0  0  0  0  0  0
  156.0301  150.1400  170.7191 N   0  0  0  0  0  0  0  0  0  0  0  0
  155.0714  150.8098  170.0846 C   0  0  0  0  0  0  0  0  0  0  0  0
  154.1834  151.4309  169.4964 C   0  0  0  0  0  0  0  0  0  0  0  0
  153.2168  152.0843  168.8448 C   0  0  0  0  0  0  0  0  0  0  0  0
  152.3170  152.6869  168.2515 C   0  0  0  0  0  0  0  0  0  0  0  0
  150.6540  151.9826  168.3697 Cl  0  0  0  0  0  0  0  0  0  0  0  0
  152.3976  153.9619  167.4135 C   0  0  0  0  0  0  0  0  0  0  0  0
  153.8553  154.0244  166.9277 C   0  0  0  0  0  0  0  0  0  0  0  0
  151.5906  153.8153  166.2282 N   0  0  0  0  0  0  0  0  0  0  0  0
  151.1450  155.0292  165.6273 C   0  0  0  0  0  0  0  0  0  0  0  0
  150.2426  155.1848  164.6402 C   0  0  0  0  0  0  0  0  0  0  0  0
  149.5563  154.0818  164.0062 N   0  0  0  0  0  0  0  0  0  0  0  0
  150.0270  152.8544  163.9021 C   0  0  0  0  0  0  0  0  0  0  0  0
  151.3533  152.4405  164.4346 C   0  0  0  0  0  0  0  0  0  0  0  0
  151.3809  152.5518  165.8270 O   0  0  0  0  0  0  0  0  0  0  0  0
  1  2  2  0
  2  3  1  0
  3  4  1  0
  4  5  1  0
  5  6  1  0
  6  7  1  0
  7  8  1  0
  8  9  1  0
  9 10  1  0
 10 11  1  0
 11 12  2  0
 12 13  1  0
 13 14  1  0
 14 15  1  0
 15 16  2  3
 16 17  1  0
 17 18  2  3
 18 19  1  0
 18 20  1  0
 20 21  1  0
 20 22  1  0
 22 23  1  0
 23 24  2  0
 24 25  1  0
 25 26  2  0
 26 27  1  0
 27 28  1  0
 10  2  1  0
 28 22  1  0
 13 10  1  0
M  END
$$$$
