
     RDKit          3D

 32 35  0  0  0  0  0  0  0  0999 V2000
  116.7334  142.9871  133.9216 C   0  0  0  0  0  0  0  0  0  0  0  0
  117.5387  144.1573  134.4027 C   0  0  0  0  0  0  0  0  0  0  0  0
  116.7179  145.2905  134.5894 O   0  0  0  0  0  0  0  0  0  0  0  0
  116.5700  145.9096  135.8296 C   0  0  0  0  0  0  0  0  0  0  0  0
  115.3678  146.4472  136.2363 C   0  0  0  0  0  0  0  0  0  0  0  0
  115.2263  147.0609  137.4638 C   0  0  0  0  0  0  0  0  0  0  0  0
  116.2857  147.1674  138.3493 C   0  0  0  0  0  0  0  0  0  0  0  0
  116.0922  147.8324  139.6355 C   0  0  0  0  0  0  0  0  0  0  0  0
  117.0778  148.3350  140.4489 C   0  0  0  0  0  0  0  0  0  0  0  0
  116.4902  148.8940  141.5645 C   0  0  0  0  0  0  0  0  0  0  0  0
  117.0339  149.5260  142.6631 C   0  0  0  0  0  0  0  0  0  0  0  0
  118.8000  149.6921  142.7458 S   0  0  0  0  0  0  0  0  0  0  0  0
  119.2330  150.6042  144.2411 C   0  0  0  0  0  0  0  0  0  0  0  0
  118.8341  149.9547  145.4930 C   0  0  0  0  0  0  0  0  0  0  0  0
  118.7074  148.6830  145.4759 O   0  0  0  0  0  0  0  0  0  0  0  0
  118.5735  150.5771  146.7284 N   0  0  0  0  0  0  0  0  0  0  0  0
  118.2042  149.8688  147.9010 C   0  0  0  0  0  0  0  0  0  0  0  0
  117.6106  148.6313  147.8245 C   0  0  0  0  0  0  0  0  0  0  0  0
  117.2417  147.9210  148.9609 C   0  0  0  0  0  0  0  0  0  0  0  0
  116.4859  146.3494  148.8672 Cl  0  0  0  0  0  0  0  0  0  0  0  0
  117.4710  148.4581  150.2216 C   0  0  0  0  0  0  0  0  0  0  0  0
  118.0620  149.6902  150.2983 C   0  0  0  0  0  0  0  0  0  0  0  0
  118.4216  150.3821  149.1538 C   0  0  0  0  0  0  0  0  0  0  0  0
  119.0129  151.6173  149.2829 O   0  0  0  0  0  0  0  0  0  0  0  0
  119.0175  152.4232  150.4237 C   0  0  0  0  0  0  0  0  0  0  0  0
  116.1782  149.9714  143.5909 N   0  0  0  0  0  0  0  0  0  0  0  0
  114.8408  149.8065  143.4525 C   0  0  0  0  0  0  0  0  0  0  0  0
  114.3033  149.1743  142.3529 C   0  0  0  0  0  0  0  0  0  0  0  0
  115.1626  148.7242  141.4153 N   0  0  0  0  0  0  0  0  0  0  0  0
  114.9402  148.0971  140.2742 N   0  0  0  0  0  0  0  0  0  0  0  0
  117.4865  146.6321  137.9478 C   0  0  0  0  0  0  0  0  0  0  0  0
  117.6285  146.0128  136.7085 C   0  0  0  0  0  0  0  0  0  0  0  0
  1  2  1  0
  2  3  1  0
  3  4  1  0
  4  5  2  0
  5  6  1  0
  6  7  2  0
  7  8  1  0
  8  9  1  0
  9 10  2  0
 10 11  1  0
 11 12  1  0
 12 13  1  0
 13 14  1  0
 14 15  2  0
 14 16  1  0
 16 17  1  0
 17 18  2  0
 18 19  1  0
 19 20  1  0
 19 21  2  0
 21 22  1  0
 22 23  2  0
 23 24  1  0
 24 25  1  0
 11 26  2  0
 26 27  1  0
 27 28  2  0
 28 29  1  0
 29 30  1  0
  7 31  1  0
 31 32  2  0
 32  4  1  0
 30  8  2  0
 29 10  1  0
 23 17  1  0
M  END
$$$$
