
     RDKit          3D

 21 23  0  0  0  0  0  0  0  0999 V2000
   34.0700   25.1758   20.8555 O   0  0  0  0  0  0  0  0  0  0  0  0
   32.9385   25.4560   20.1168 C   0  0  0  0  0  0  0  0  0  0  0  0
   32.4117   24.1023   19.5758 C   0  0  0  0  0  0  0  0  0  0  0  0
   31.2640   23.7420   20.1432 N   0  0  0  0  0  0  0  0  0  0  0  0
   30.0650   23.3657   20.7361 C   0  0  0  0  0  0  0  0  0  0  0  0
   29.8291   22.5772   21.7846 N   0  0  0  0  0  0  0  0  0  0  0  0
   28.6125   22.2542   22.2580 C   0  0  0  0  0  0  0  0  0  0  0  0
   28.4674   21.3504   23.4123 C   0  0  0  0  0  0  0  0  0  0  0  0
   27.2733   21.0556   23.9959 C   0  0  0  0  0  0  0  0  0  0  0  0
   27.1877   20.2054   25.0860 C   0  0  0  0  0  0  0  0  0  0  0  0
   28.3649   19.6396   25.5909 C   0  0  0  0  0  0  0  0  0  0  0  0
   28.3081   18.5556   26.9667 Cl  0  0  0  0  0  0  0  0  0  0  0  0
   29.5723   19.9264   25.0136 C   0  0  0  0  0  0  0  0  0  0  0  0
   31.0675   19.2112   25.6643 Cl  0  0  0  0  0  0  0  0  0  0  0  0
   29.6322   20.7751   23.9325 C   0  0  0  0  0  0  0  0  0  0  0  0
   27.5526   22.7658   21.6251 N   0  0  0  0  0  0  0  0  0  0  0  0
   27.6829   23.5810   20.5464 C   0  0  0  0  0  0  0  0  0  0  0  0
   28.9245   23.8906   20.0900 C   0  0  0  0  0  0  0  0  0  0  0  0
   28.7555   24.6779   19.0606 C   0  0  0  0  0  0  0  0  0  0  0  0
   27.4815   24.9252   18.7840 C   0  0  0  0  0  0  0  0  0  0  0  0
   26.7460   24.1728   19.8001 C   0  0  0  0  0  0  0  0  0  0  0  0
  1  2  1  0
  2  3  1  0
  3  4  1  0
  4  5  1  0
  5  6  2  0
  6  7  1  0
  7  8  1  0
  8  9  2  0
  9 10  1  0
 10 11  2  0
 11 12  1  0
 11 13  1  0
 13 14  1  0
 13 15  2  0
  7 16  2  0
 16 17  1  0
 17 18  1  0
 18 19  2  0
 19 20  2  0
 20 21  1  0
 18  5  1  0
 15  8  1  0
 21 17  2  0
M  END
$$$$
