
     RDKit          3D

 14 15  0  0  0  0  0  0  0  0999 V2000
  125.9674  135.3227  147.6259 C   0  0  0  0  0  0  0  0  0  0  0  0
  126.2866  136.4431  146.8095 O   0  0  0  0  0  0  0  0  0  0  0  0
  126.7290  136.2805  145.5048 C   0  0  0  0  0  0  0  0  0  0  0  0
  126.6572  135.1043  145.0388 O   0  0  0  0  0  0  0  0  0  0  0  0
  127.2455  137.3861  144.7116 C   0  0  0  0  0  0  0  0  0  0  0  0
  127.3160  138.6763  145.1804 C   0  0  0  0  0  0  0  0  0  0  0  0
  127.8101  139.7270  144.4179 C   0  0  0  0  0  0  0  0  0  0  0  0
  128.2481  139.4599  143.1351 C   0  0  0  0  0  0  0  0  0  0  0  0
  128.1832  138.1666  142.6503 C   0  0  0  0  0  0  0  0  0  0  0  0
  127.6867  137.1415  143.4318 C   0  0  0  0  0  0  0  0  0  0  0  0
  127.6345  135.8469  142.9128 O   0  0  0  0  0  0  0  0  0  0  0  0
  128.6964  140.6422  142.5596 O   0  0  0  0  0  0  0  0  0  0  0  0
  128.2027  141.7031  143.3466 C   0  0  0  0  0  0  0  0  0  0  0  0
  128.0012  141.0826  144.6040 O   0  0  0  0  0  0  0  0  0  0  0  0
  1  2  1  0
  2  3  1  0
  3  4  2  0
  3  5  1  0
  5  6  2  0
  6  7  1  0
  7  8  2  0
  8  9  1  0
  9 10  2  0
 10 11  1  0
  8 12  1  0
 12 13  1  0
 13 14  1  0
 10  5  1  0
 14  7  1  0
M  END
$$$$
