@<TRIPOS>MOLECULE
/home/vital/Documents/GitHub/Malaria_codesV2/Project2_Polypharmacology_MD_ValidationV2607/MD_systems/201_PfDHFR/ligand/ligand_201.pdb
 37 38 0 0 0
SMALL
GASTEIGER

@<TRIPOS>ATOM
      1 C           4.9844   -0.6646    3.3698 C.3     1  UNL1       -0.0639
      2 C           4.0499   -0.9260    2.1945 C.3     1  UNL1       -0.0400
      3 C           2.6487   -1.4155    2.5787 C.3     1  UNL1        0.0144
      4 N           1.9527   -0.5306    3.5171 N.am    1  UNL1       -0.3004
      5 C           2.2426   -0.8151    4.9131 C.3     1  UNL1        0.0035
      6 C           1.1894    0.5295    2.9858 C.2     1  UNL1        0.2515
      7 O           1.1273    0.6625    1.7627 O.2     1  UNL1       -0.2698
      8 C           0.4512    1.5293    3.8670 C.ar    1  UNL1        0.0999
      9 C           0.4125    1.4772    5.2065 C.ar    1  UNL1        0.0180
     10 N          -0.1940    2.3296    6.0778 N.ar    1  UNL1       -0.3597
     11 C          -0.7456    3.5157    5.6174 C.ar    1  UNL1        0.0502
     12 C          -1.2293    4.4443    6.5410 C.ar    1  UNL1       -0.0374
     13 C          -1.8337    5.6084    6.1010 C.ar    1  UNL1       -0.0569
     14 C          -1.9836    5.8509    4.7306 C.ar    1  UNL1       -0.0496
     15 C          -2.6652    7.1067    4.2768 C.3     1  UNL1       -0.0397
     16 C          -1.5148    4.9051    3.7978 C.ar    1  UNL1       -0.0460
     17 C          -0.8833    3.7360    4.2425 C.ar    1  UNL1        0.0460
     18 C          -0.3313    2.7058    3.2857 C.ar    1  UNL1        0.2015
     19 O          -0.5332    2.8642    2.0895 O.2     1  UNL1       -0.2864
     20 H           4.6788    0.2273    3.9265 H       1  UNL1        0.0230
     21 H           6.0034   -0.4889    3.0121 H       1  UNL1        0.0230
     22 H           5.0161   -1.5143    4.0589 H       1  UNL1        0.0230
     23 H           3.9700   -0.0093    1.6007 H       1  UNL1        0.0278
     24 H           4.5087   -1.6869    1.5525 H       1  UNL1        0.0278
     25 H           2.0483   -1.5332    1.6695 H       1  UNL1        0.0464
     26 H           2.7067   -2.4161    3.0260 H       1  UNL1        0.0464
     27 H           2.7255    0.0564    5.3654 H       1  UNL1        0.0429
     28 H           1.3178   -1.1041    5.4180 H       1  UNL1        0.0429
     29 H           2.9255   -1.6606    5.0245 H       1  UNL1        0.0429
     30 H           0.8827    0.7325    5.8068 H       1  UNL1        0.0816
     31 H           0.0624    2.2741    7.0567 H       1  UNL1        0.1654
     32 H          -1.1275    4.2564    7.6061 H       1  UNL1        0.0638
     33 H          -2.1928    6.3233    6.8389 H       1  UNL1        0.0621
     34 H          -2.0385    7.6395    3.5566 H       1  UNL1        0.0278
     35 H          -3.6317    6.8672    3.8249 H       1  UNL1        0.0278
     36 H          -2.8453    7.7832    5.1206 H       1  UNL1        0.0278
     37 H          -1.6402    5.0807    2.7310 H       1  UNL1        0.0628
@<TRIPOS>BOND
     1     1     2    1
     2     1    20    1
     3     1    21    1
     4     1    22    1
     5     2     3    1
     6     2    23    1
     7     2    24    1
     8     3     4    1
     9     3    25    1
    10     3    26    1
    11     4     5    1
    12     4     6   am
    13     5    27    1
    14     5    28    1
    15     5    29    1
    16     6     7    2
    17     6     8    1
    18     8     9   ar
    19     8    18   ar
    20     9    10   ar
    21     9    30    1
    22    10    11   ar
    23    10    31    1
    24    11    12   ar
    25    11    17   ar
    26    12    13   ar
    27    12    32    1
    28    13    14   ar
    29    13    33    1
    30    14    15    1
    31    14    16   ar
    32    15    34    1
    33    15    35    1
    34    15    36    1
    35    16    17   ar
    36    16    37    1
    37    17    18   ar
    38    18    19    2
