
     RDKit          3D

 20 21  0  0  0  0  0  0  0  0999 V2000
  156.1713  154.1586  149.9647 C   0  0  0  0  0  0  0  0  0  0  0  0
  155.4180  153.5307  148.8811 C   0  0  0  0  0  0  0  0  0  0  0  0
  156.0398  152.8502  147.8457 C   0  0  0  0  0  0  0  0  0  0  0  0
  157.3996  152.7469  147.8413 C   0  0  0  0  0  0  0  0  0  0  0  0
  158.0094  152.0604  146.8069 C   0  0  0  0  0  0  0  0  0  0  0  0
  157.2835  151.4805  145.7891 C   0  0  0  0  0  0  0  0  0  0  0  0
  155.9127  151.5734  145.7758 C   0  0  0  0  0  0  0  0  0  0  0  0
  155.3115  152.2646  146.8181 C   0  0  0  0  0  0  0  0  0  0  0  0
  153.9776  152.3746  146.8532 N   0  0  0  0  0  0  0  0  0  0  0  0
  153.3635  153.0262  147.8425 C   0  0  0  0  0  0  0  0  0  0  0  0
  152.1047  153.1146  147.8544 O   0  0  0  0  0  0  0  0  0  0  0  0
  154.0476  153.6184  148.8764 C   0  0  0  0  0  0  0  0  0  0  0  0
  153.3758  154.3141  149.9634 C   0  0  0  0  0  0  0  0  0  0  0  0
  154.0164  154.7709  150.9562 O   0  0  0  0  0  0  0  0  0  0  0  0
  151.9541  154.5085  149.9377 N   0  0  0  0  0  2  0  0  0  0  0  0
  151.3422  154.7732  151.1285 O   0  0  0  0  0  0  0  0  0  0  0  0
  151.2308  156.1454  151.3193 C   0  0  0  0  0  0  0  0  0  0  0  0
  151.8643  156.5023  152.6281 C   0  0  0  0  0  0  0  0  0  0  0  0
  151.0797  155.8714  153.7487 C   0  0  0  0  0  0  0  0  0  0  0  0
  151.8758  158.0274  152.7322 C   0  0  0  0  0  0  0  0  0  0  0  0
  1  2  1  0
  2  3  1  0
  3  4  2  0
  4  5  1  0
  5  6  2  0
  6  7  1  0
  7  8  2  0
  8  9  1  0
  9 10  1  0
 10 11  2  0
 10 12  1  0
 12 13  1  0
 13 14  2  0
 13 15  1  0
 15 16  1  0
 16 17  1  0
 17 18  1  0
 18 19  1  0
 18 20  1  0
 12  2  2  0
  8  3  1  0
M  CHG  1  15  -1
M  END
$$$$
