
     RDKit          3D

 27 28  0  0  0  0  0  0  0  0999 V2000
   -1.8711   -8.1977  -63.3518 C   0  0  0  0  0  0  0  0  0  0  0  0
   -1.4847   -7.2755  -62.7680 C   0  0  0  0  0  0  0  0  0  0  0  0
    0.5260   -7.9283  -63.0754 Cl  0  0  0  0  0  0  0  0  0  0  0  0
   -0.9939   -6.1048  -62.0268 C   0  0  0  0  0  0  0  0  0  0  0  0
    0.3650   -5.9553  -62.0440 C   0  0  0  0  0  0  0  0  0  0  0  0
    0.9786   -5.1955  -60.9835 C   0  0  0  0  0  0  0  0  0  0  0  0
    1.2270   -5.7809  -59.8202 C   0  0  0  0  0  0  0  0  0  0  0  0
    1.8200   -5.0159  -58.7915 N   0  0  0  0  0  0  0  0  0  0  0  0
    1.2475   -5.0522  -57.4949 C   0  0  0  0  0  0  0  0  0  0  0  0
    0.1816   -5.8530  -57.3172 N   0  0  0  0  0  0  0  0  0  0  0  0
   -0.4487   -5.9683  -56.1161 C   0  0  0  0  0  0  0  0  0  0  0  0
   -1.5580   -6.8375  -56.0073 N   0  0  0  0  0  0  0  0  0  0  0  0
   -1.9482   -7.6149  -57.1742 C   0  0  0  0  0  0  0  0  0  0  0  0
   -3.4227   -7.6559  -57.3924 C   0  0  0  0  0  0  0  0  0  0  0  0
   -4.0927   -6.5621  -56.8715 O   0  0  0  0  0  0  0  0  0  0  0  0
    0.0750   -5.2137  -55.0966 C   0  0  0  0  0  0  0  0  0  0  0  0
   -0.5202   -5.2881  -53.8620 C   0  0  0  0  0  0  0  0  0  0  0  0
   -0.0257   -4.5418  -52.8081 C   0  0  0  0  0  0  0  0  0  0  0  0
    1.0691   -3.7148  -52.9831 C   0  0  0  0  0  0  0  0  0  0  0  0
    1.6746   -3.6345  -54.2196 C   0  0  0  0  0  0  0  0  0  0  0  0
    1.1750   -4.3819  -55.2626 C   0  0  0  0  0  0  0  0  0  0  0  0
    1.7412   -4.3210  -56.4749 N   0  0  0  0  0  0  0  0  0  0  0  0
   -1.7890   -5.1146  -61.3078 C   0  0  0  0  0  0  0  0  0  0  0  0
   -3.2118   -5.1234  -61.7527 C   0  0  0  0  0  0  0  0  0  0  0  0
   -4.1028   -4.3195  -60.8653 C   0  0  0  0  0  0  0  0  0  0  0  0
   -4.0965   -4.5576  -59.5410 C   0  0  0  0  0  0  0  0  0  0  0  0
   -5.5960   -4.7858  -58.6595 Cl  0  0  0  0  0  0  0  0  0  0  0  0
  1  2  2  0
  2  3  1  0
  2  4  1  0
  4  5  2  3
  5  6  1  0
  6  7  2  3
  7  8  1  0
  8  9  1  0
  9 10  2  0
 10 11  1  0
 11 12  1  0
 12 13  1  0
 13 14  1  0
 14 15  1  0
 11 16  2  0
 16 17  1  0
 17 18  2  0
 18 19  1  0
 19 20  2  0
 20 21  1  0
 21 22  2  0
  4 23  1  0
 23 24  1  0
 24 25  1  0
 25 26  2  3
 26 27  1  0
 22  9  1  0
 21 16  1  0
M  END
$$$$
