
     RDKit          3D

 14 14  0  0  0  0  0  0  0  0999 V2000
  128.4516  134.9483  139.5266 O   0  0  0  0  0  0  0  0  0  0  0  0
  128.6985  136.0481  138.6769 C   0  0  0  0  0  0  0  0  0  0  0  0
  128.8353  137.2622  139.6056 C   0  0  0  0  0  0  0  0  0  0  0  0
  128.3337  136.8468  140.9073 N   0  0  0  0  0  0  0  0  0  0  0  0
  128.2492  137.8515  141.9130 C   0  0  0  0  0  0  0  0  0  0  0  0
  127.9271  137.4907  143.1033 N   0  0  0  0  0  0  0  0  0  0  0  0
  127.5493  138.4751  144.0502 C   0  0  0  0  0  0  0  0  0  0  0  0
  127.2191  137.9702  145.2294 C   0  0  0  0  0  0  0  0  0  0  0  0
  127.3343  136.2277  145.3084 Cl  0  0  0  0  0  0  0  0  0  0  0  0
  126.7800  138.6783  146.4877 C   0  0  0  0  0  0  0  0  0  0  0  0
  127.5793  139.9177  146.6115 C   0  0  0  0  0  0  0  0  0  0  0  0
  127.7244  140.8767  145.7210 C   0  0  0  0  0  0  0  0  0  0  0  0
  127.1391  141.0048  144.3446 C   0  0  0  0  0  0  0  0  0  0  0  0
  127.5827  139.8252  143.6018 N   0  0  0  0  0  0  0  0  0  0  0  0
  1  2  1  0
  2  3  1  0
  3  4  1  0
  4  5  1  0
  5  6  2  3
  6  7  1  0
  7  8  2  0
  8  9  1  0
  8 10  1  0
 10 11  1  0
 11 12  2  0
 12 13  1  0
 13 14  1  0
 14  7  1  0
M  END
$$$$
