
     RDKit          3D

 23 23  0  0  0  0  0  0  0  0999 V2000
  153.5298  153.3930  158.3914 N   0  0  0  0  0  0  0  0  0  0  0  0
  152.3640  153.9388  158.4888 C   0  0  0  0  0  0  0  0  0  0  0  0
  151.2696  154.5165  158.9011 C   0  0  0  0  0  0  0  0  0  0  0  0
  151.1348  154.8991  160.2148 O   0  0  0  0  0  0  0  0  0  0  0  0
  149.9240  155.3965  160.7152 C   0  0  0  0  0  0  0  0  0  0  0  0
  150.0218  155.9347  162.1251 C   0  0  0  0  0  0  0  0  0  0  0  0
  149.3711  155.0949  163.0924 N   0  0  0  0  0  0  0  0  0  0  0  0
  150.3284  154.3164  163.8421 C   0  0  0  0  0  0  0  0  0  0  0  0
  149.6268  153.4296  164.8191 C   0  0  0  0  0  0  0  0  0  0  0  0
  150.2425  153.2929  166.0369 O   0  0  0  0  0  0  0  0  0  0  0  0
  151.4435  152.6203  165.9741 C   0  0  0  0  0  0  0  0  0  0  0  0
  152.0356  152.4969  167.3303 C   0  0  0  0  0  0  0  0  0  0  0  0
  153.2078  151.8950  167.4982 C   0  0  0  0  0  0  0  0  0  0  0  0
  153.7184  151.7383  168.8369 C   0  0  0  0  0  0  0  0  0  0  0  0
  154.8795  151.1733  169.0349 C   0  0  0  0  0  0  0  0  0  0  0  0
  155.3027  150.8609  170.3436 N   0  0  0  0  0  0  0  0  0  0  0  0
  156.2056  149.7815  170.5887 C   0  0  0  0  0  0  0  0  0  0  0  0
  157.5294  150.0890  169.9957 C   0  0  0  0  0  0  0  0  0  0  0  0
  158.4230  150.0340  170.9741 C   0  0  0  0  0  0  0  0  0  0  0  0
  160.1424  150.3349  170.7170 Cl  0  0  0  0  0  0  0  0  0  0  0  0
  157.7835  149.7018  172.2388 C   0  0  0  0  0  0  0  0  0  0  0  0
  158.6185  149.5303  173.7899 Cl  0  0  0  0  0  0  0  0  0  0  0  0
  156.4859  149.5525  172.0266 C   0  0  0  0  0  0  0  0  0  0  0  0
  1  2  2  0
  2  3  2  0
  3  4  1  0
  4  5  1  0
  5  6  1  0
  6  7  1  0
  7  8  1  0
  8  9  1  0
  9 10  1  0
 10 11  1  0
 11 12  1  0
 12 13  2  3
 13 14  1  0
 14 15  2  3
 15 16  1  0
 16 17  1  0
 17 18  1  0
 18 19  2  0
 19 20  1  0
 19 21  1  0
 21 22  1  0
 21 23  2  0
 23 17  1  0
M  END
$$$$
