
     RDKit          3D

 23 23  0  0  0  0  0  0  0  0999 V2000
  151.2350  159.4122  156.6349 N   0  0  0  0  0  0  0  0  0  0  0  0
  150.4898  158.3752  156.4458 C   0  0  0  0  0  0  0  0  0  0  0  0
  149.5129  157.5524  156.1812 C   0  0  0  0  0  0  0  0  0  0  0  0
  149.2455  156.4948  157.0181 O   0  0  0  0  0  0  0  0  0  0  0  0
  148.2238  155.5769  156.7396 C   0  0  0  0  0  0  0  0  0  0  0  0
  148.0497  154.5165  157.8037 C   0  0  0  0  0  0  0  0  0  0  0  0
  146.9962  153.5872  157.5022 N   0  0  0  0  0  0  0  0  0  0  0  0
  146.8591  152.5925  158.5397 C   0  0  0  0  0  0  0  0  0  0  0  0
  145.5055  152.6781  159.1670 C   0  0  0  0  0  0  0  0  0  0  0  0
  145.4974  152.8950  160.5211 O   0  0  0  0  0  0  0  0  0  0  0  0
  146.5659  153.6432  160.9653 C   0  0  0  0  0  0  0  0  0  0  0  0
  147.2039  152.9857  162.1339 C   0  0  0  0  0  0  0  0  0  0  0  0
  148.3256  153.4762  162.6496 C   0  0  0  0  0  0  0  0  0  0  0  0
  148.8952  152.8295  163.8050 C   0  0  0  0  0  0  0  0  0  0  0  0
  150.0687  153.1931  164.2491 C   0  0  0  0  0  0  0  0  0  0  0  0
  150.6493  152.5262  165.3480 N   0  0  0  0  0  0  0  0  0  0  0  0
  152.0153  152.7434  165.7045 C   0  0  0  0  0  0  0  0  0  0  0  0
  152.1139  153.8848  166.6458 C   0  0  0  0  0  0  0  0  0  0  0  0
  152.7073  153.4402  167.7452 C   0  0  0  0  0  0  0  0  0  0  0  0
  153.0320  154.4706  169.1402 Cl  0  0  0  0  0  0  0  0  0  0  0  0
  153.0312  152.0266  167.6210 C   0  0  0  0  0  0  0  0  0  0  0  0
  153.8280  151.0497  168.8634 Cl  0  0  0  0  0  0  0  0  0  0  0  0
  152.6305  151.6070  166.4318 C   0  0  0  0  0  0  0  0  0  0  0  0
  1  2  2  0
  2  3  2  0
  3  4  1  0
  4  5  1  0
  5  6  1  0
  6  7  1  0
  7  8  1  0
  8  9  1  0
  9 10  1  0
 10 11  1  0
 11 12  1  0
 12 13  2  3
 13 14  1  0
 14 15  2  3
 15 16  1  0
 16 17  1  0
 17 18  1  0
 18 19  2  0
 19 20  1  0
 19 21  1  0
 21 22  1  0
 21 23  2  0
 23 17  1  0
M  END
$$$$
