
     RDKit          3D

 11 11  0  0  0  0  0  0  0  0999 V2000
    2.0412   31.8249   -2.1964 C   0  0  0  0  0  0  0  0  0  0  0  0
    2.8965   30.9063   -3.0165 C   0  0  0  0  0  0  0  0  0  0  0  0
    2.2832   30.5469   -4.3197 C   0  0  0  0  0  0  0  0  0  0  0  0
    2.2100   29.3112   -4.7544 C   0  0  0  0  0  0  0  0  0  0  0  0
    1.6844   28.9762   -6.0709 C   0  0  0  0  0  0  0  0  0  0  0  0
    1.4664   27.6376   -6.4239 C   0  0  0  0  0  0  0  0  0  0  0  0
    0.9726   27.2961   -7.6566 C   0  0  0  0  0  0  0  0  0  0  0  0
    0.7579   25.9690   -8.0029 O   0  0  0  0  0  0  0  0  0  0  0  0
    0.6670   28.2442   -8.6057 C   0  0  0  0  0  0  0  0  0  0  0  0
    0.8675   29.5684   -8.2959 C   0  0  0  0  0  0  0  0  0  0  0  0
    1.3723   29.9042   -7.0340 C   0  0  0  0  0  0  0  0  0  0  0  0
  1  2  1  0
  2  3  1  0
  3  4  2  3
  4  5  1  0
  5  6  2  0
  6  7  1  0
  7  8  1  0
  7  9  2  0
  9 10  1  0
 10 11  2  0
 11  5  1  0
M  END
$$$$
