
     RDKit          3D

 24 26  0  0  0  0  0  0  0  0999 V2000
  154.7754  130.5898  173.0168 C   0  0  0  0  0  0  0  0  0  0  0  0
  155.8444  130.1215  172.2121 O   0  0  0  0  0  0  0  0  0  0  0  0
  155.5665  129.8669  170.8616 C   0  0  0  0  0  0  0  0  0  0  0  0
  154.3210  129.4059  170.4871 C   0  0  0  0  0  0  0  0  0  0  0  0
  154.1331  129.1819  169.1414 C   0  0  0  0  0  0  0  0  0  0  0  0
  152.9137  128.7165  168.6565 O   0  0  0  0  0  0  0  0  0  0  0  0
  155.1335  129.4091  168.2484 C   0  0  0  0  0  0  0  0  0  0  0  0
  155.0217  129.2088  166.8894 C   0  0  0  0  0  0  0  0  0  0  0  0
  153.9302  128.7881  166.4208 O   0  0  0  0  0  0  0  0  0  0  0  0
  156.1114  129.4785  166.1023 C   0  0  0  0  0  0  0  0  0  0  0  0
  155.9150  129.2511  164.7514 O   0  0  0  0  0  0  0  0  0  0  0  0
  157.3291  129.9376  166.5382 C   0  0  0  0  0  0  0  0  0  0  0  0
  158.4924  130.2292  165.7297 C   0  0  0  0  0  0  0  0  0  0  0  0
  159.7681  130.5469  166.1196 C   0  0  0  0  0  0  0  0  0  0  0  0
  160.8201  130.8109  165.2761 C   0  0  0  0  0  0  0  0  0  0  0  0
  160.6165  130.7625  163.9149 C   0  0  0  0  0  0  0  0  0  0  0  0
  161.6736  131.0278  163.0674 O   0  0  0  0  0  0  0  0  0  0  0  0
  159.3539  130.4482  163.4608 C   0  0  0  0  0  0  0  0  0  0  0  0
  159.1292  130.3945  162.0939 O   0  0  0  0  0  0  0  0  0  0  0  0
  157.8703  129.9648  161.6266 C   0  0  0  0  0  0  0  0  0  0  0  0
  158.3435  130.1945  164.3593 C   0  0  0  0  0  0  0  0  0  0  0  0
  157.3730  130.1061  167.8227 O   0  0  0  0  0  0  0  0  0  0  0  0
  156.3743  129.8692  168.6300 C   0  0  0  0  0  0  0  0  0  0  0  0
  156.6056  130.1076  169.9739 C   0  0  0  0  0  0  0  0  0  0  0  0
  1  2  1  0
  2  3  1  0
  3  4  2  0
  4  5  1  0
  5  6  1  0
  5  7  2  0
  7  8  1  0
  8  9  2  0
  8 10  1  0
 10 11  1  0
 10 12  2  0
 12 13  1  0
 13 14  2  0
 14 15  1  0
 15 16  2  0
 16 17  1  0
 16 18  1  0
 18 19  1  0
 19 20  1  0
 18 21  2  0
 12 22  1  0
 22 23  1  0
 23 24  2  0
 24  3  1  0
 23  7  1  0
 21 13  1  0
M  END
$$$$
