
     RDKit          3D

 20 22  0  0  0  0  0  0  0  0999 V2000
  170.5306  145.1395  156.9416 Cl  0  0  0  0  0  0  0  0  0  0  0  0
  169.0475  144.5850  156.1785 C   0  0  0  0  0  0  0  0  0  0  0  0
  168.7754  144.8342  154.9058 C   0  0  0  0  0  0  0  0  0  0  0  0
  167.5441  144.3974  154.1965 C   0  0  0  0  0  0  0  0  0  0  0  0
  167.8323  143.3253  153.2296 N   0  0  0  0  0  0  0  0  0  0  0  0
  167.4209  141.9915  153.4554 C   0  0  0  0  0  0  0  0  0  0  0  0
  167.3799  141.4946  154.7018 N   0  0  0  0  0  0  0  0  0  0  0  0
  166.9930  140.2299  154.9277 C   0  0  0  0  0  0  0  0  0  0  0  0
  166.6488  139.4765  153.8748 N   0  0  0  0  0  0  0  0  0  0  0  0
  166.6698  139.9130  152.6227 C   0  0  0  0  0  0  0  0  0  0  0  0
  166.2919  139.0501  151.5939 C   0  0  0  0  0  0  0  0  0  0  0  0
  166.3163  139.5069  150.3168 C   0  0  0  0  0  0  0  0  0  0  0  0
  166.7136  140.8086  150.0786 C   0  0  0  0  0  0  0  0  0  0  0  0
  167.0873  141.6651  151.0864 C   0  0  0  0  0  0  0  0  0  0  0  0
  167.0647  141.2097  152.3749 C   0  0  0  0  0  0  0  0  0  0  0  0
  166.9604  139.7388  156.2615 N   0  0  0  0  0  0  0  0  0  0  0  0
  166.9743  140.6061  157.4218 C   0  0  0  0  0  0  0  0  0  0  0  0
  168.3438  140.9923  157.8385 C   0  0  0  0  0  0  0  0  0  0  0  0
  168.8417  142.2207  157.8050 C   0  0  0  0  0  0  0  0  0  0  0  0
  167.9337  143.6620  157.2401 S   0  0  0  0  0  2  0  0  0  0  0  0
  1  2  1  0
  2  3  2  0
  3  4  1  0
  4  5  1  0
  5  6  1  0
  6  7  1  0
  7  8  2  0
  8  9  1  0
  9 10  2  0
 10 11  1  0
 11 12  2  0
 12 13  1  0
 13 14  2  0
 14 15  1  0
  8 16  1  0
 16 17  1  0
 17 18  1  0
 18 19  2  0
 19 20  1  0
 20  2  1  0
 15  6  2  0
 15 10  1  0
M  CHG  1  20   1
M  RAD  1  20   2
M  END
$$$$
