
     RDKit          3D

 26 28  0  0  0  0  0  0  0  0999 V2000
    9.1174   41.9118   17.4310 C   0  0  0  0  0  0  0  0  0  0  0  0
    9.9328   40.6879   17.4580 C   0  0  0  0  0  0  0  0  0  0  0  0
   10.2963   40.0047   16.2022 C   0  0  0  0  0  0  0  0  0  0  0  0
   10.3520   40.1818   18.6113 C   0  0  0  0  0  0  0  0  0  0  0  0
    9.3868   40.0514   19.7300 C   0  0  0  0  0  0  0  0  0  0  0  0
    9.6916   40.9003   20.7559 O   0  0  0  0  0  0  0  0  0  0  0  0
   10.8295   41.1969   21.4289 C   0  0  0  0  0  0  0  0  0  0  0  0
   11.6830   40.3428   22.0675 C   0  0  0  0  0  0  0  0  0  0  0  0
   12.8358   40.7694   22.7373 C   0  0  0  0  0  0  0  0  0  0  0  0
   13.6731   39.8633   23.3729 O   0  0  0  0  0  0  0  0  0  0  0  0
   13.1147   42.1222   22.7462 C   0  0  0  0  0  0  0  0  0  0  0  0
   12.2896   43.0314   22.1179 C   0  0  0  0  0  0  0  0  0  0  0  0
   11.1743   42.5594   21.4775 C   0  0  0  0  0  0  0  0  0  0  0  0
   12.6401   44.3716   22.1727 O   0  0  0  0  0  0  0  0  0  0  0  0
   13.4281   44.9020   23.2333 C   0  0  2  0  0  0  0  0  0  0  0  0
   13.6561   46.3250   22.9155 C   0  0  0  0  0  0  0  0  0  0  0  0
   12.7783   47.2958   23.3531 C   0  0  0  0  0  0  0  0  0  0  0  0
   12.9501   48.6356   23.0808 C   0  0  0  0  0  0  0  0  0  0  0  0
   14.0390   49.0332   22.3423 C   0  0  0  0  0  0  0  0  0  0  0  0
   14.2306   50.3696   22.0577 O   0  0  0  0  0  0  0  0  0  0  0  0
   14.9277   48.1064   21.8924 C   0  0  0  0  0  0  0  0  0  0  0  0
   14.7382   46.7590   22.1769 C   0  0  0  0  0  0  0  0  0  0  0  0
   14.6728   44.0952   23.3391 C   0  0  1  0  0  0  0  0  0  0  0  0
   15.4068   44.3663   24.4945 O   0  0  0  0  0  0  0  0  0  0  0  0
   14.2916   42.6599   23.4176 C   0  0  0  0  0  0  0  0  0  0  0  0
   14.9820   41.8207   24.0823 O   0  0  0  0  0  0  0  0  0  0  0  0
  1  2  1  0
  2  3  1  0
  2  4  2  3
  4  5  1  0
  5  6  1  0
  6  7  1  0
  7  8  2  0
  8  9  1  0
  9 10  1  0
  9 11  2  0
 11 12  1  0
 12 13  2  0
 12 14  1  0
 15 14  1  6
 15 16  1  0
 16 17  2  0
 17 18  1  0
 18 19  2  0
 19 20  1  0
 19 21  1  0
 21 22  2  0
 15 23  1  0
 23 24  1  1
 23 25  1  0
 25 26  2  0
 13  7  1  0
 22 16  1  0
 25 11  1  0
M  END
$$$$
