
     RDKit          3D

 22 24  0  0  0  0  0  0  0  0999 V2000
  123.5972  130.8302   77.0352 C   0  0  0  0  0  0  0  0  0  0  0  0
  124.7449  130.6128   77.9571 C   0  0  0  0  0  0  0  0  0  0  0  0
  125.8997  129.9929   77.4996 C   0  0  0  0  0  0  0  0  0  0  0  0
  126.9878  129.7626   78.2909 C   0  0  0  0  0  0  0  0  0  0  0  0
  128.1480  129.1234   77.7907 N   0  0  0  0  0  0  0  0  0  0  0  0
  128.2894  128.5935   76.4807 C   0  0  0  0  0  0  0  0  0  0  0  0
  127.2852  128.8289   75.5378 C   0  0  0  0  0  0  0  0  0  0  0  0
  127.3471  128.3507   74.2498 C   0  0  0  0  0  0  0  0  0  0  0  0
  126.2405  128.6295   73.2677 C   0  0  0  0  0  0  0  0  0  0  0  0
  126.4272  129.9613   72.8858 F   0  0  0  0  0  0  0  0  0  0  0  0
  125.0452  128.5165   73.9343 F   0  0  0  0  0  0  0  0  0  0  0  0
  126.3272  127.7937   72.1778 F   0  0  0  0  0  0  0  0  0  0  0  0
  128.4344  127.6034   73.8406 C   0  0  0  0  0  0  0  0  0  0  0  0
  129.4425  127.3557   74.7538 C   0  0  0  0  0  0  0  0  0  0  0  0
  129.3638  127.8472   76.0536 C   0  0  0  0  0  0  0  0  0  0  0  0
  130.3730  127.5789   76.9090 F   0  0  0  0  0  0  0  0  0  0  0  0
  126.9274  130.1654   79.5932 N   0  0  0  0  0  0  0  0  0  0  0  0
  127.8339  130.0557   80.5352 N   0  0  0  0  0  0  0  0  0  0  0  0
  127.3032  130.6017   81.6465 C   0  0  0  0  0  0  0  0  0  0  0  0
  126.0639  131.0367   81.3423 N   0  0  0  0  0  0  0  0  0  0  0  0
  125.8202  130.7610   80.0358 C   0  0  0  0  0  0  0  0  0  0  0  0
  124.7392  130.9895   79.2491 N   0  0  0  0  0  0  0  0  0  0  0  0
  1  2  1  0
  2  3  1  0
  3  4  2  0
  4  5  1  0
  5  6  1  0
  6  7  2  0
  7  8  1  0
  8  9  1  0
  9 10  1  0
  9 11  1  0
  9 12  1  0
  8 13  2  0
 13 14  1  0
 14 15  2  0
 15 16  1  0
  4 17  1  0
 17 18  1  0
 18 19  2  0
 19 20  1  0
 20 21  2  0
 21 22  1  0
 22  2  2  0
 15  6  1  0
 21 17  1  0
M  END
$$$$
