
     RDKit          3D

 31 32  0  0  0  0  0  0  0  0999 V2000
    2.3942   -5.0325  -55.1636 C   0  0  0  0  0  0  0  0  0  0  0  0
    1.0902   -5.0360  -55.4405 C   0  0  0  0  0  0  0  0  0  0  0  0
   -0.0261   -5.7634  -54.3170 Cl  0  0  0  0  0  0  0  0  0  0  0  0
    0.6634   -4.4379  -56.6469 C   0  0  0  0  0  0  0  0  0  0  0  0
    0.9399   -2.8596  -57.2475 Cl  0  0  0  0  0  0  0  0  0  0  0  0
   -0.0640   -5.1933  -57.4329 C   0  0  0  0  0  0  0  0  0  0  0  0
   -0.7196   -6.0398  -58.1831 C   0  0  0  0  0  0  0  0  0  0  0  0
   -0.3301   -6.1622  -59.4948 N   0  0  0  0  0  0  0  0  0  0  0  0
   -1.0120   -7.0111  -60.4087 C   0  0  0  0  0  0  0  0  0  0  0  0
   -2.2257   -7.5134  -60.1546 N   0  0  0  0  0  0  0  0  0  0  0  0
   -2.9051   -8.3343  -61.0142 C   0  0  0  0  0  0  0  0  0  0  0  0
   -4.1803   -8.8214  -60.6826 N   0  0  0  0  0  0  0  0  0  0  0  0
   -4.6346   -8.9900  -59.3151 C   0  0  0  0  0  0  0  0  0  0  0  0
   -5.9545   -8.3339  -59.0365 C   0  0  0  0  0  0  0  0  0  0  0  0
   -5.6658   -6.9080  -58.5653 C   0  0  0  0  0  0  0  0  0  0  0  0
   -6.8642   -6.3069  -58.0069 N   0  0  0  0  0  0  0  0  0  0  0  0
   -6.6055   -4.9346  -57.5818 C   0  0  0  0  0  0  0  0  0  0  0  0
   -7.8304   -4.3121  -56.9762 C   0  0  0  0  0  0  0  0  0  0  0  0
   -8.4708   -3.2328  -57.7829 C   0  0  0  0  0  0  0  0  0  0  0  0
   -9.6362   -2.5561  -57.2316 C   0  0  0  0  0  0  0  0  0  0  0  0
  -10.3487   -1.5639  -57.7149 C   0  0  0  0  0  0  0  0  0  0  0  0
  -11.5127   -1.0282  -56.9260 C   0  0  0  0  0  0  0  0  0  0  0  0
  -12.6726   -1.1881  -57.6604 O   0  0  0  0  0  0  0  0  0  0  0  0
  -13.6008   -0.3758  -57.2464 O   0  0  0  0  0  0  0  0  0  0  0  0
   -2.3038   -8.6544  -62.1958 C   0  0  0  0  0  0  0  0  0  0  0  0
   -2.8948   -9.4679  -63.1262 C   0  0  0  0  0  0  0  0  0  0  0  0
   -2.2870   -9.8056  -64.3454 C   0  0  0  0  0  0  0  0  0  0  0  0
   -1.0430   -9.2875  -64.5995 C   0  0  0  0  0  0  0  0  0  0  0  0
   -0.4182   -8.4675  -63.6898 C   0  0  0  0  0  0  0  0  0  0  0  0
   -1.0239   -8.1423  -62.4961 C   0  0  0  0  0  0  0  0  0  0  0  0
   -0.4588   -7.3541  -61.5860 N   0  0  0  0  0  0  0  0  0  0  0  0
  1  2  2  0
  2  3  1  0
  2  4  1  0
  4  5  1  0
  4  6  2  0
  6  7  2  0
  7  8  1  0
  8  9  1  0
  9 10  2  0
 10 11  1  0
 11 12  1  0
 12 13  1  0
 13 14  1  0
 14 15  1  0
 15 16  1  0
 16 17  1  0
 17 18  1  0
 18 19  1  0
 19 20  1  0
 20 21  2  3
 21 22  1  0
 22 23  1  0
 23 24  1  0
 11 25  2  0
 25 26  1  0
 26 27  2  0
 27 28  1  0
 28 29  2  0
 29 30  1  0
 30 31  2  0
 31  9  1  0
 30 25  1  0
M  END
$$$$
