
     RDKit          3D

 31 32  0  0  0  0  0  0  0  0999 V2000
    0.6321   -5.5263  -54.0993 C   0  0  0  0  0  0  0  0  0  0  0  0
    0.4258   -5.3344  -55.4022 C   0  0  0  0  0  0  0  0  0  0  0  0
   -0.9872   -6.0179  -56.1596 Cl  0  0  0  0  0  0  0  0  0  0  0  0
    1.3722   -4.5714  -56.1217 C   0  0  0  0  0  0  0  0  0  0  0  0
    2.9966   -4.1932  -55.7390 Cl  0  0  0  0  0  0  0  0  0  0  0  0
    0.9530   -4.0615  -57.2538 C   0  0  0  0  0  0  0  0  0  0  0  0
    0.4437   -3.6327  -58.3790 C   0  0  0  0  0  0  0  0  0  0  0  0
    0.6527   -4.3938  -59.5033 N   0  0  0  0  0  0  0  0  0  0  0  0
   -0.3953   -5.1262  -60.1246 C   0  0  0  0  0  0  0  0  0  0  0  0
   -1.6448   -5.1388  -59.6467 N   0  0  0  0  0  0  0  0  0  0  0  0
   -2.6730   -5.8359  -60.2223 C   0  0  0  0  0  0  0  0  0  0  0  0
   -3.9629   -5.7992  -59.6671 N   0  0  0  0  0  0  0  0  0  0  0  0
   -4.2904   -5.0490  -58.4692 C   0  0  0  0  0  0  0  0  0  0  0  0
   -5.7232   -5.1883  -58.0474 C   0  0  0  0  0  0  0  0  0  0  0  0
   -6.0097   -6.6820  -57.8880 C   0  0  0  0  0  0  0  0  0  0  0  0
   -7.4358   -6.9106  -57.7361 N   0  0  0  0  0  0  0  0  0  0  0  0
   -7.7206   -8.3359  -57.6019 C   0  0  0  0  0  0  0  0  0  0  0  0
   -7.9404   -8.9758  -58.9423 C   0  0  0  0  0  0  0  0  0  0  0  0
   -6.7263   -9.5565  -59.5862 C   0  0  0  0  0  0  0  0  0  0  0  0
   -6.8764  -10.2201  -60.8735 C   0  0  0  0  0  0  0  0  0  0  0  0
   -6.0010  -10.8854  -61.5923 C   0  0  0  0  0  0  0  0  0  0  0  0
   -6.2504  -11.0997  -63.0606 C   0  0  0  0  0  0  0  0  0  0  0  0
   -5.5440  -12.2092  -63.4853 O   0  0  0  0  0  0  0  0  0  0  0  0
   -5.5346  -12.2853  -64.7841 O   0  0  0  0  0  0  0  0  0  0  0  0
   -2.4005   -6.5570  -61.3474 C   0  0  0  0  0  0  0  0  0  0  0  0
   -3.3551   -7.2901  -62.0016 C   0  0  0  0  0  0  0  0  0  0  0  0
   -3.0880   -8.0368  -63.1596 C   0  0  0  0  0  0  0  0  0  0  0  0
   -1.8052   -8.0197  -63.6440 C   0  0  0  0  0  0  0  0  0  0  0  0
   -0.8202   -7.2957  -63.0147 C   0  0  0  0  0  0  0  0  0  0  0  0
   -1.0935   -6.5662  -61.8786 C   0  0  0  0  0  0  0  0  0  0  0  0
   -0.1741   -5.8518  -61.2357 N   0  0  0  0  0  0  0  0  0  0  0  0
  1  2  2  0
  2  3  1  0
  2  4  1  0
  4  5  1  0
  4  6  2  0
  6  7  2  0
  7  8  1  0
  8  9  1  0
  9 10  2  0
 10 11  1  0
 11 12  1  0
 12 13  1  0
 13 14  1  0
 14 15  1  0
 15 16  1  0
 16 17  1  0
 17 18  1  0
 18 19  1  0
 19 20  1  0
 20 21  2  3
 21 22  1  0
 22 23  1  0
 23 24  1  0
 11 25  2  0
 25 26  1  0
 26 27  2  0
 27 28  1  0
 28 29  2  0
 29 30  1  0
 30 31  2  0
 31  9  1  0
 30 25  1  0
M  END
$$$$
