
     RDKit          3D

 24 26  0  0  0  0  0  0  0  0999 V2000
  151.0385  155.3325  153.0779 C   0  0  0  0  0  0  0  0  0  0  0  0
  151.1581  156.6588  152.6609 O   0  0  0  0  0  0  0  0  0  0  0  0
  151.4462  156.9454  151.3446 C   0  0  0  0  0  0  0  0  0  0  0  0
  152.1903  158.0620  151.0147 C   0  0  0  0  0  0  0  0  0  0  0  0
  152.4670  158.3332  149.7101 C   0  0  0  0  0  0  0  0  0  0  0  0
  152.0202  157.5150  148.7032 C   0  0  0  0  0  0  0  0  0  0  0  0
  152.3608  157.8351  147.0127 Cl  0  0  0  0  0  0  0  0  0  0  0  0
  151.2645  156.3766  149.0058 C   0  0  0  0  0  0  0  0  0  0  0  0
  150.7788  155.4885  147.8952 C   0  0  0  0  0  0  0  0  0  0  0  0
  151.4891  154.2543  147.8670 N   0  0  0  0  0  0  0  0  0  0  0  0
  150.7756  153.1685  147.2344 C   0  0  0  0  0  0  0  0  0  0  0  0
  151.5495  151.9079  147.4403 C   0  0  0  0  0  0  0  0  0  0  0  0
  152.8561  152.0230  146.8233 N   0  0  0  0  0  0  0  0  0  0  0  0
  153.5166  150.7404  146.9944 C   0  0  0  0  0  0  0  0  0  0  0  0
  154.9075  150.7414  146.4766 C   0  0  0  0  0  0  0  0  0  0  0  0
  155.1071  150.2810  145.1738 C   0  0  0  0  0  0  0  0  0  0  0  0
  156.3791  150.2679  144.6594 C   0  0  0  0  0  0  0  0  0  0  0  0
  157.4660  150.6956  145.3905 C   0  0  0  0  0  0  0  0  0  0  0  0
  158.7449  150.6693  144.8376 O   0  0  0  0  0  0  0  0  0  0  0  0
  157.2640  151.1517  146.6830 C   0  0  0  0  0  0  0  0  0  0  0  0
  155.9890  151.1716  147.2165 C   0  0  0  0  0  0  0  0  0  0  0  0
  153.5713  153.0820  147.5066 C   0  0  0  0  0  0  0  0  0  0  0  0
  152.7756  154.3734  147.2589 C   0  0  0  0  0  0  0  0  0  0  0  0
  151.0035  156.1324  150.3288 C   0  0  0  0  0  0  0  0  0  0  0  0
  1  2  1  0
  2  3  1  0
  3  4  2  0
  4  5  1  0
  5  6  2  0
  6  7  1  0
  6  8  1  0
  8  9  1  0
  9 10  1  0
 10 11  1  0
 11 12  1  0
 12 13  1  0
 13 14  1  0
 14 15  1  0
 15 16  2  0
 16 17  1  0
 17 18  2  0
 18 19  1  0
 18 20  1  0
 20 21  2  0
 13 22  1  0
 22 23  1  0
  8 24  2  0
 24  3  1  0
 23 10  1  0
 21 15  1  0
M  END
$$$$
