
     RDKit          3D

 26 28  0  0  0  0  0  0  0  0999 V2000
  157.4945  151.8996  147.3476 C   0  0  0  0  0  0  0  0  0  0  0  0
  156.2164  151.8753  146.5748 C   0  0  0  0  0  0  0  0  0  0  0  0
  155.0808  152.4799  147.0919 C   0  0  0  0  0  0  0  0  0  0  0  0
  153.8708  152.4991  146.4434 C   0  0  0  0  0  0  0  0  0  0  0  0
  152.6787  153.0785  146.9269 N   0  0  0  0  0  0  0  0  0  0  0  0
  152.5254  153.5839  148.2404 C   0  0  0  0  0  0  0  0  0  0  0  0
  151.3033  153.8005  148.8255 C   0  0  0  0  0  0  0  0  0  0  0  0
  151.2051  154.2760  150.1262 C   0  0  0  0  0  0  0  0  0  0  0  0
  152.3450  154.5531  150.8889 C   0  0  0  0  0  0  0  0  0  0  0  0
  152.1794  155.0496  152.2736 C   0  0  0  0  0  0  0  0  0  0  0  0
  151.9184  156.4595  152.3292 N   0  0  0  0  0  0  0  0  0  0  0  0
  151.1484  157.0327  153.3625 C   0  0  0  0  0  0  0  0  0  0  0  0
  150.6272  156.3931  154.2889 O   0  0  0  0  0  0  0  0  0  0  0  0
  150.9474  158.4103  153.3610 O   0  0  0  0  0  1  0  0  0  0  0  0
  153.5571  154.3285  150.2803 C   0  0  0  0  0  0  0  0  0  0  0  0
  153.6544  153.8546  148.9848 C   0  0  0  0  0  0  0  0  0  0  0  0
  153.8371  151.8781  145.2302 N   0  0  0  0  0  0  0  0  0  0  0  0
  152.8682  151.7000  144.3374 N   0  0  0  0  0  0  0  0  0  0  0  0
  153.3090  151.0141  143.2686 C   0  0  0  0  0  0  0  0  0  0  0  0
  152.5208  150.6157  142.0539 C   0  0  0  0  0  0  0  0  0  0  0  0
  152.6196  149.2569  141.8891 F   0  0  0  0  0  0  0  0  0  0  0  0
  151.2121  151.0054  142.2165 F   0  0  0  0  0  0  0  0  0  0  0  0
  153.0143  151.2369  140.9152 F   0  0  0  0  0  0  0  0  0  0  0  0
  154.6058  150.7588  143.5143 N   0  0  0  0  0  0  0  0  0  0  0  0
  154.9334  151.2847  144.7118 C   0  0  0  0  0  0  0  0  0  0  0  0
  156.1104  151.2817  145.3740 N   0  0  0  0  0  0  0  0  0  0  0  0
  1  2  1  0
  2  3  1  0
  3  4  2  0
  4  5  1  0
  5  6  1  0
  6  7  2  0
  7  8  1  0
  8  9  2  0
  9 10  1  0
 10 11  1  0
 11 12  1  0
 12 13  2  0
 12 14  1  0
  9 15  1  0
 15 16  2  0
  4 17  1  0
 17 18  1  0
 18 19  2  0
 19 20  1  0
 20 21  1  0
 20 22  1  0
 20 23  1  0
 19 24  1  0
 24 25  2  0
 25 26  1  0
 26  2  2  0
 16  6  1  0
 25 17  1  0
M  CHG  1  14  -1
M  END
$$$$
