
     RDKit          3D

 36 36  0  0  0  0  0  0  0  0999 V2000
  153.6632  165.0665  162.3180 C   0  0  0  0  0  0  0  0  0  0  0  0
  153.3111  163.5855  162.3622 C   0  0  0  0  0  0  0  0  0  0  0  0
  152.5942  163.1766  161.0692 C   0  0  0  0  0  0  0  0  0  0  0  0
  152.1832  161.7431  161.1254 C   0  0  0  0  0  0  0  0  0  0  0  0
  151.6437  161.1344  160.0088 N   0  0  0  0  0  0  0  0  0  0  0  0
  151.2823  159.7991  159.8998 C   0  0  0  0  0  0  0  0  0  0  0  0
  150.6430  159.3064  158.6347 C   0  0  0  0  0  0  0  0  0  0  0  0
  150.4038  157.9122  158.8218 O   0  0  0  0  0  0  0  0  0  0  0  0
  149.8248  157.2241  157.7798 C   0  0  0  0  0  0  0  0  0  0  0  0
  149.7275  155.9357  157.8529 C   0  0  0  0  0  0  0  0  0  0  0  0
  149.5331  154.6579  157.7160 C   0  0  0  0  0  0  0  0  0  0  0  0
  149.5864  153.3346  157.6792 C   0  0  0  0  0  0  0  0  0  0  0  0
  150.0676  152.6717  156.5247 N   0  0  0  0  0  0  0  0  0  0  0  0
  151.1892  153.1512  155.7258 C   0  0  0  0  0  0  0  0  0  0  0  0
  150.8307  153.4436  154.3415 C   0  0  0  0  0  0  0  0  0  0  0  0
  151.5096  153.8634  153.3274 C   0  0  0  0  0  0  0  0  0  0  0  0
  151.1747  154.0538  151.9410 C   0  0  0  0  0  0  0  0  0  0  0  0
  151.7726  154.4254  151.0111 N   0  0  0  0  0  0  0  0  0  0  0  0
  152.3320  154.4009  149.8570 C   0  0  0  0  0  0  0  0  0  0  0  0
  152.8645  154.3988  148.7619 C   0  0  0  0  0  0  0  0  0  0  0  0
  153.4570  154.4122  147.5025 C   0  0  0  0  0  0  0  0  0  0  0  0
  154.0006  153.3946  146.9116 C   0  0  0  0  0  0  0  0  0  0  0  0
  154.6036  153.2722  145.5878 C   0  0  0  0  0  0  0  0  0  0  0  0
  155.2179  152.0386  145.2283 N   0  0  0  0  0  0  0  0  0  0  0  0
  156.6509  152.1412  145.2283 C   0  0  0  0  0  0  0  0  0  0  0  0
  157.3291  151.1178  146.1106 C   0  0  0  0  0  0  0  0  0  0  0  0
  158.7182  151.2164  146.0187 O   0  0  0  0  0  0  0  0  0  0  0  0
  149.1381  152.6633  158.8349 N   0  0  0  0  0  0  0  0  0  0  0  0
  147.7617  152.6838  159.1675 C   0  0  0  0  0  0  0  0  0  0  0  0
  147.0846  151.5192  159.4247 C   0  0  0  0  0  0  0  0  0  0  0  0
  145.7455  151.5258  159.7509 C   0  0  0  0  0  0  0  0  0  0  0  0
  145.0321  152.6978  159.8326 C   0  0  0  0  0  0  0  0  0  0  0  0
  143.3212  152.7175  160.2493 Cl  0  0  0  0  0  0  0  0  0  0  0  0
  145.7251  153.8570  159.5717 C   0  0  0  0  0  0  0  0  0  0  0  0
  144.8730  155.3886  159.6610 Cl  0  0  0  0  0  0  0  0  0  0  0  0
  147.0519  153.8752  159.2466 C   0  0  0  0  0  0  0  0  0  0  0  0
  1  2  1  0
  2  3  1  0
  3  4  1  0
  4  5  1  0
  5  6  1  0
  6  7  1  0
  7  8  1  0
  8  9  1  0
  9 10  2  0
 10 11  2  0
 11 12  2  0
 12 13  1  0
 13 14  1  0
 14 15  1  0
 15 16  2  3
 16 17  1  0
 17 18  2  3
 18 19  1  0
 19 20  3  0
 20 21  1  0
 21 22  2  3
 22 23  1  0
 23 24  1  0
 24 25  1  0
 25 26  1  0
 26 27  1  0
 12 28  1  0
 28 29  1  0
 29 30  2  0
 30 31  1  0
 31 32  2  0
 32 33  1  0
 32 34  1  0
 34 35  1  0
 34 36  2  0
 36 29  1  0
M  END
$$$$
