
     RDKit          3D

 16 17  0  0  0  0  0  0  0  0999 V2000
   -0.8965   70.7095   -1.7985 C   0  0  0  0  0  0  0  0  0  0  0  0
   -0.8880   71.8290   -2.5472 C   0  0  0  0  0  0  0  0  0  0  0  0
   -0.7687   71.9432   -4.0389 C   0  0  0  0  0  0  0  0  0  0  0  0
   -0.7205   73.3638   -4.4731 C   0  0  0  0  0  0  0  0  0  0  0  0
   -1.1918   74.3223   -3.6021 C   0  0  0  0  0  0  0  0  0  0  0  0
   -1.1456   75.6420   -4.0072 C   0  0  0  0  0  0  0  0  0  0  0  0
   -1.5956   76.6786   -3.2019 O   0  0  0  0  0  0  0  0  0  0  0  0
   -2.4719   76.5323   -2.1223 C   0  0  0  0  0  0  0  0  0  0  0  0
   -0.6414   76.0033   -5.2531 C   0  0  0  0  0  0  0  0  0  0  0  0
   -0.1663   75.0239   -6.1292 C   0  0  0  0  0  0  0  0  0  0  0  0
   -0.2152   73.6916   -5.7145 C   0  0  0  0  0  0  0  0  0  0  0  0
    0.2618   72.7542   -6.6045 O   0  0  0  0  0  0  0  0  0  0  0  0
    1.3005   71.8317   -6.3369 C   0  0  0  0  0  0  0  0  0  0  0  0
    0.2628   75.7137   -7.2774 O   0  0  0  0  0  0  0  0  0  0  0  0
    0.5722   77.0488   -6.8713 C   0  0  0  0  0  0  0  0  0  0  0  0
   -0.4765   77.2351   -5.9120 O   0  0  0  0  0  0  0  0  0  0  0  0
  1  2  2  0
  2  3  1  0
  3  4  1  0
  4  5  2  0
  5  6  1  0
  6  7  1  0
  7  8  1  0
  6  9  2  0
  9 10  1  0
 10 11  2  0
 11 12  1  0
 12 13  1  0
 10 14  1  0
 14 15  1  0
 15 16  1  0
 11  4  1  0
 16  9  1  0
M  END
$$$$
