
     RDKit          3D

 23 25  0  0  0  0  0  0  0  0999 V2000
   24.5899   52.0280   35.8955 O   0  0  0  0  0  0  0  0  0  0  0  0
   24.8571   53.3937   35.7608 C   0  0  0  0  0  0  0  0  0  0  0  0
   24.9439   53.6811   34.2841 C   0  0  0  0  0  0  0  0  0  0  0  0
   26.3622   53.5662   33.8881 N   0  0  0  0  0  0  0  0  0  0  0  0
   26.7530   52.5262   33.0100 C   0  0  0  0  0  0  0  0  0  0  0  0
   25.8159   51.6349   32.5865 N   0  0  0  0  0  0  0  0  0  0  0  0
   26.1514   50.6371   31.7542 C   0  0  0  0  0  0  0  0  0  0  0  0
   24.8897   49.4823   31.2177 B   0  0  0  0  0  2  0  0  0  0  0  0
   23.5469   48.3391   31.0745 C   0  0  0  0  0  0  0  0  0  0  0  0
   23.0795   47.7410   32.2009 C   0  0  0  0  0  0  0  0  0  0  0  0
   22.0291   46.8455   32.0965 C   0  0  0  0  0  0  0  0  0  0  0  0
   21.4783   46.5770   30.8596 C   0  0  0  0  0  0  0  0  0  0  0  0
   20.1493   45.4376   30.7642 Cl  0  0  0  0  0  0  0  0  0  0  0  0
   21.9475   47.1803   29.7117 C   0  0  0  0  0  0  0  0  0  0  0  0
   21.2644   46.8547   28.1342 Cl  0  0  0  0  0  0  0  0  0  0  0  0
   22.9851   48.0634   29.8238 C   0  0  0  0  0  0  0  0  0  0  0  0
   27.4212   50.5139   31.3338 N   0  0  0  0  0  0  0  0  0  0  0  0
   28.4029   51.3471   31.7024 C   0  0  0  0  0  0  0  0  0  0  0  0
   29.6986   51.2186   31.2713 C   0  0  0  0  0  0  0  0  0  0  0  0
   30.6419   52.1146   31.6967 C   0  0  0  0  0  0  0  0  0  0  0  0
   30.3133   53.1415   32.5489 C   0  0  0  0  0  0  0  0  0  0  0  0
   28.9960   53.2886   32.9995 C   0  0  0  0  0  0  0  0  0  0  0  0
   28.0435   52.3933   32.5770 C   0  0  0  0  0  0  0  0  0  0  0  0
  1  2  1  0
  2  3  1  0
  3  4  1  0
  4  5  1  0
  5  6  2  0
  6  7  1  0
  7  8  1  0
  8  9  1  0
  9 10  2  0
 10 11  1  0
 11 12  2  0
 12 13  1  0
 12 14  1  0
 14 15  1  0
 14 16  2  0
  7 17  2  0
 17 18  1  0
 18 19  2  0
 19 20  1  0
 20 21  2  0
 21 22  1  0
 22 23  2  0
 23  5  1  0
 16  9  1  0
 23 18  1  0
M  CHG  1   8   1
M  END
$$$$
