
     RDKit          3D

 18 18  0  0  0  0  0  0  0  0999 V2000
  145.8046  144.5639  143.0301 C   0  0  0  0  0  3  0  0  0  0  0  0
  146.9316  144.7726  143.4688 C   0  0  0  0  0  0  0  0  0  0  0  0
  148.2727  144.9957  143.9951 C   0  0  0  0  0  0  0  0  0  0  0  0
  148.7192  146.4289  143.9246 C   0  0  0  0  0  0  0  0  0  0  0  0
  149.8563  146.6904  144.9322 C   0  0  0  0  0  0  0  0  0  0  0  0
  150.1576  148.1012  144.8115 N   0  0  0  0  0  0  0  0  0  0  0  0
  151.3319  148.4213  145.5542 C   0  0  0  0  0  0  0  0  0  0  0  0
  151.6017  149.8996  145.4906 C   0  0  0  0  0  0  0  0  0  0  0  0
  152.8782  150.0765  146.0535 O   0  0  0  0  0  0  0  0  0  0  0  0
  153.2472  151.3988  146.0274 N   0  0  0  0  0  0  0  0  0  0  0  0
  154.5783  151.6344  146.4843 C   0  0  0  0  0  0  0  0  0  0  0  0
  155.5976  150.7798  146.1192 C   0  0  0  0  0  0  0  0  0  0  0  0
  156.9091  151.0264  146.5446 C   0  0  0  0  0  0  0  0  0  0  0  0
  157.1762  152.1214  147.3260 C   0  0  0  0  0  0  0  0  0  0  0  0
  158.8566  152.3992  147.8249 Cl  0  0  0  0  0  0  0  0  0  0  0  0
  156.1728  152.9932  147.7063 C   0  0  0  0  0  0  0  0  0  0  0  0
  156.6308  154.3582  148.6940 Cl  0  0  0  0  0  0  0  0  0  0  0  0
  154.9018  152.7199  147.2716 C   0  0  0  0  0  0  0  0  0  0  0  0
  1  2  3  0
  2  3  1  0
  3  4  1  0
  4  5  1  0
  5  6  1  0
  6  7  1  0
  7  8  1  0
  8  9  1  0
  9 10  1  0
 10 11  1  0
 11 12  2  0
 12 13  1  0
 13 14  2  0
 14 15  1  0
 14 16  1  0
 16 17  1  0
 16 18  2  0
 18 11  1  0
M  CHG  1   1  -1
M  END
$$$$
