
     RDKit          3D

 25 27  0  0  0  0  0  0  0  0999 V2000
  124.4827  146.8912  148.8900 C   0  0  0  0  0  0  0  0  0  0  0  0
  125.5457  146.0258  149.2367 O   0  0  0  0  0  0  0  0  0  0  0  0
  126.2908  146.3388  150.3618 C   0  0  0  0  0  0  0  0  0  0  0  0
  125.9413  147.4373  151.1676 C   0  0  0  0  0  0  0  0  0  0  0  0
  126.6967  147.7307  152.2826 C   0  0  0  0  0  0  0  0  0  0  0  0
  127.7860  146.9510  152.6025 C   0  0  0  0  0  0  0  0  0  0  0  0
  128.1171  145.8669  151.7925 C   0  0  0  0  0  0  0  0  0  0  0  0
  127.3729  145.5587  150.6735 C   0  0  0  0  0  0  0  0  0  0  0  0
  127.6802  144.4384  149.8230 N   0  0  0  0  0  0  0  0  0  0  0  0
  128.5693  143.4083  150.1885 C   0  0  0  0  0  0  0  0  0  0  0  0
  128.1346  142.0129  150.1179 C   0  0  0  0  0  0  0  0  0  0  0  0
  128.5795  141.2319  151.0810 O   0  0  0  0  0  0  0  0  0  0  0  0
  127.3197  141.3683  149.1955 N   0  0  0  0  0  0  0  0  0  0  0  0
  127.1936  141.6611  147.8024 C   0  0  0  0  0  0  0  0  0  0  0  0
  127.5972  140.5087  146.9219 C   0  0  0  0  0  0  0  0  0  0  0  0
  127.2179  139.2327  147.4990 N   0  0  0  0  0  0  0  0  0  0  0  0
  127.0824  138.1333  146.6095 C   0  0  0  0  0  0  0  0  0  0  0  0
  127.5709  138.1728  145.4588 O   0  0  0  0  0  0  0  0  0  0  0  0
  126.3680  136.9056  146.9928 C   0  0  0  0  0  0  0  0  0  0  0  0
  125.7687  136.7117  148.2178 C   0  0  0  0  0  0  0  0  0  0  0  0
  125.1993  135.4462  148.2133 C   0  0  0  0  0  0  0  0  0  0  0  0
  125.4916  134.9302  146.9560 C   0  0  0  0  0  0  0  0  0  0  0  0
  126.1745  135.8248  146.2880 O   0  0  0  0  0  0  0  0  0  0  0  0
  126.9729  139.0023  148.8937 C   0  0  0  0  0  0  0  0  0  0  0  0
  126.4598  140.2148  149.6202 C   0  0  0  0  0  0  0  0  0  0  0  0
  1  2  1  0
  2  3  1  0
  3  4  2  0
  4  5  1  0
  5  6  2  0
  6  7  1  0
  7  8  2  0
  8  9  1  0
  9 10  1  0
 10 11  1  0
 11 12  2  0
 11 13  1  0
 13 14  1  0
 14 15  1  0
 15 16  1  0
 16 17  1  0
 17 18  2  0
 17 19  1  0
 19 20  2  0
 20 21  1  0
 21 22  2  0
 22 23  1  0
 16 24  1  0
 24 25  1  0
  8  3  1  0
 25 13  1  0
 23 19  1  0
M  END
$$$$
