
     RDKit          3D

 23 24  0  0  0  0  0  0  0  0999 V2000
   27.7293   46.7685   27.1868 N   0  0  0  0  0  2  0  0  0  0  0  0
   27.7215   45.8522   28.1179 C   0  0  0  0  0  0  0  0  0  0  0  0
   26.5037   45.1619   28.4893 C   0  0  0  0  0  0  0  0  0  0  0  0
   26.5377   44.2189   29.4044 C   0  0  0  0  0  0  0  0  0  0  0  0
   28.0206   43.7937   30.2428 Cl  0  0  0  0  0  0  0  0  0  0  0  0
   25.2481   43.4281   29.7914 B   0  0  0  0  0  3  0  0  0  0  0  0
   25.3115   42.0229   29.1978 N   0  0  0  0  0  0  0  0  0  0  0  0
   23.9128   44.1894   29.3507 C   0  0  0  0  0  0  0  0  0  0  0  0
   23.9848   45.5774   29.9160 C   0  0  0  0  0  0  0  0  0  0  0  0
   22.8327   46.3860   29.5622 N   0  0  0  0  0  0  0  0  0  0  0  0
   22.0080   46.9186   30.5918 C   0  0  0  0  0  0  0  0  0  0  0  0
   22.4149   47.8403   31.3848 N   0  0  0  0  0  0  0  0  0  0  0  0
   21.4100   48.1938   32.3146 C   0  0  0  0  0  0  0  0  0  0  0  0
   21.4004   49.1201   33.3441 C   0  0  0  0  0  0  0  0  0  0  0  0
   20.2774   49.2743   34.1262 C   0  0  0  0  0  0  0  0  0  0  0  0
   19.1692   48.5026   33.8769 C   0  0  0  0  0  0  0  0  0  0  0  0
   19.1864   47.5852   32.8531 C   0  0  0  0  0  0  0  0  0  0  0  0
   20.2977   47.4195   32.0634 C   0  0  0  0  0  0  0  0  0  0  0  0
   20.6142   46.5517   30.9393 C   0  0  0  0  0  0  0  0  0  0  0  0
   19.9401   45.6393   30.3173 C   0  0  0  0  0  0  0  0  0  0  0  0
   18.7684   44.8471   30.6341 C   0  0  0  0  0  0  0  0  0  0  0  0
   18.9930   43.3600   30.3797 C   0  0  0  0  0  0  0  0  0  0  0  0
   18.9887   43.2084   28.9780 O   0  0  0  0  0  0  0  0  0  0  0  0
  1  2  2  0
  2  3  1  0
  3  4  2  3
  4  5  1  0
  4  6  1  0
  6  7  1  0
  6  8  1  0
  8  9  1  0
  9 10  1  0
 10 11  1  0
 11 12  2  0
 12 13  1  0
 13 14  2  0
 14 15  1  0
 15 16  2  0
 16 17  1  0
 17 18  2  0
 18 19  1  0
 19 20  2  3
 20 21  1  0
 21 22  1  0
 22 23  1  0
 19 11  1  0
 18 13  1  0
M  CHG  2   1  -1   6  -1
M  RAD  1   6   2
M  END
$$$$
