
     RDKit          3D

 16 17  0  0  0  0  0  0  0  0999 V2000
   49.4227   58.0853    6.7930 O   0  0  0  0  0  0  0  0  0  0  0  0
   48.4338   58.7240    5.9875 C   0  0  0  0  0  0  0  0  0  0  0  0
   47.9070   59.9837    6.5682 C   0  0  0  0  0  0  0  0  0  0  0  0
   47.0919   59.9213    7.7289 N   0  0  0  0  0  0  0  0  0  0  0  0
   47.3649   59.5689    8.9526 C   0  0  0  0  0  0  0  0  0  0  0  0
   47.5194   58.1581    9.3677 C   0  0  0  0  0  0  0  0  0  0  0  0
   46.9292   57.8230   10.6153 C   0  0  0  0  0  0  0  0  0  0  0  0
   47.2104   56.2318   10.8184 C   0  0  0  0  0  0  0  0  0  0  0  0
   46.0767   56.3027   12.7725 C   0  0  0  0  0  0  0  0  0  0  0  0
   46.1105   56.8706   12.3879 C   0  0  0  0  0  0  0  0  0  0  0  0
   46.1355   57.3380   12.0745 P   0  0  0  0  0  5  0  0  0  0  0  0
   46.2338   58.7036   11.1550 C   0  0  0  0  0  0  0  0  0  0  0  0
   45.9939   59.8797   10.7719 N   0  0  0  0  0  0  0  0  0  0  0  0
   46.3387   60.5092    9.8958 C   0  0  0  0  0  0  0  0  0  0  0  0
   46.3682   61.8480    9.3303 C   0  0  0  0  0  0  0  0  0  0  0  0
   46.5120   63.0553   10.6783 Cl  0  0  0  0  0  0  0  0  0  0  0  0
  1  2  1  0
  2  3  1  0
  3  4  1  0
  4  5  1  0
  5  6  1  0
  6  7  2  0
  7  8  1  0
  8  9  2  0
  9 10  1  0
 10 11  3  0
 11 12  2  0
 12 13  1  0
 13 14  2  0
 14 15  1  0
 15 16  1  0
 14  5  1  0
 12  7  1  0
M  CHG  1  11  -1
M  RAD  1  11   2
M  END
$$$$
