
     RDKit          3D

 26 29  0  0  0  0  0  0  0  0999 V2000
  134.7174  140.2147  158.1088 C   0  0  0  0  0  0  0  0  0  0  0  0
  133.6279  141.0596  158.3489 O   0  0  0  0  0  0  0  0  0  0  0  0
  132.7590  141.5392  157.3856 C   0  0  0  0  0  0  0  0  0  0  0  0
  131.7270  142.3677  157.7465 C   0  0  0  0  0  0  0  0  0  0  0  0
  130.8340  142.8689  156.8080 C   0  0  0  0  0  0  0  0  0  0  0  0
  130.9900  142.5270  155.4955 C   0  0  0  0  0  0  0  0  0  0  0  0
  130.0927  143.0076  154.4546 C   0  0  0  0  0  0  0  0  0  0  0  0
  129.2680  144.0643  154.5623 N   0  0  0  0  0  0  0  0  0  0  0  0
  128.5838  144.2080  153.3962 C   0  0  0  0  0  0  0  0  0  0  0  0
  127.5836  145.2014  153.0379 C   0  0  0  0  0  0  0  0  0  0  0  0
  127.7969  146.5273  153.3461 C   0  0  0  0  0  0  0  0  0  0  0  0
  126.8744  147.5132  153.0289 C   0  0  0  0  0  0  0  0  0  0  0  0
  125.6983  147.1915  152.3859 C   0  0  0  0  0  0  0  0  0  0  0  0
  125.4724  145.8732  152.0723 C   0  0  0  0  0  0  0  0  0  0  0  0
  126.4005  144.9065  152.3952 C   0  0  0  0  0  0  0  0  0  0  0  0
  128.9987  143.2123  152.5468 C   0  0  0  0  0  0  0  0  0  0  0  0
  128.5617  142.9537  151.1982 C   0  0  0  0  0  0  0  0  0  0  0  0
  128.3441  143.9220  150.2681 C   0  0  0  0  0  0  0  0  0  0  0  0
  127.9266  143.6201  148.9913 C   0  0  0  0  0  0  0  0  0  0  0  0
  127.7110  142.3064  148.6038 C   0  0  0  0  0  0  0  0  0  0  0  0
  127.2931  141.9720  147.3329 O   0  0  0  0  0  0  0  0  0  0  0  0
  127.9237  141.3059  149.5253 C   0  0  0  0  0  0  0  0  0  0  0  0
  128.3364  141.6369  150.7805 C   0  0  0  0  0  0  0  0  0  0  0  0
  129.9329  142.4835  153.2276 N   0  0  0  0  0  0  0  0  0  0  0  0
  132.0425  141.6874  155.1575 C   0  0  0  0  0  0  0  0  0  0  0  0
  132.9361  141.1797  156.0620 C   0  0  0  0  0  0  0  0  0  0  0  0
  1  2  1  0
  2  3  1  0
  3  4  2  0
  4  5  1  0
  5  6  2  0
  6  7  1  0
  7  8  2  0
  8  9  1  0
  9 10  1  0
 10 11  2  0
 11 12  1  0
 12 13  2  0
 13 14  1  0
 14 15  2  0
  9 16  2  0
 16 17  1  0
 17 18  2  0
 18 19  1  0
 19 20  2  0
 20 21  1  0
 20 22  1  0
 22 23  2  0
 16 24  1  0
  6 25  1  0
 25 26  2  0
 26  3  1  0
 24  7  1  0
 15 10  1  0
 23 17  1  0
M  END
$$$$
