
     RDKit          3D

 27 30  0  0  0  0  0  0  0  0999 V2000
  125.9961  146.8014  151.4960 C   0  0  0  0  0  0  0  0  0  0  0  0
  125.7914  146.4807  150.0172 C   0  0  0  0  0  0  0  0  0  0  0  0
  127.1799  146.1379  149.4623 C   0  0  2  0  0  0  0  0  0  0  0  0
  127.1776  146.1565  147.9522 C   0  0  0  0  0  0  0  0  0  0  0  0
  127.6140  144.8064  149.9817 C   0  0  0  0  0  0  0  0  0  0  0  0
  128.5195  144.7340  151.0221 C   0  0  0  0  0  0  0  0  0  0  0  0
  128.8866  143.4828  151.4627 C   0  0  0  0  0  0  0  0  0  0  0  0
  128.3571  142.3253  150.8730 C   0  0  0  0  0  0  0  0  0  0  0  0
  127.4593  142.3866  149.8423 C   0  0  0  0  0  0  0  0  0  0  0  0
  126.9093  141.2434  149.2053 N   0  0  0  0  0  0  0  0  0  0  0  0
  127.5088  139.6612  149.2342 S   0  0  0  0  0  6  0  0  0  0  0  0
  128.8766  139.5837  149.8649 O   0  0  0  0  0  0  0  0  0  0  0  0
  126.6032  138.8147  150.1205 O   0  0  0  0  0  0  0  0  0  0  0  0
  127.4905  138.8987  147.6673 C   0  0  0  0  0  0  0  0  0  0  0  0
  126.9038  137.6311  147.5727 C   0  0  0  0  0  0  0  0  0  0  0  0
  126.8938  136.9842  146.3380 C   0  0  0  0  0  0  0  0  0  0  0  0
  127.4690  137.6439  145.2806 C   0  0  0  0  0  0  0  0  0  0  0  0
  128.0470  138.8736  145.3396 C   0  0  0  0  0  0  0  0  0  0  0  0
  128.0573  139.5219  146.5741 C   0  0  0  0  0  0  0  0  0  0  0  0
  128.6574  139.4775  144.1406 C   0  0  0  0  0  0  0  0  0  0  0  0
  127.9343  139.0085  142.9080 C   0  0  0  0  0  0  0  0  0  0  0  0
  127.9202  137.5086  142.8882 C   0  0  0  0  0  0  0  0  0  0  0  0
  128.3180  136.7880  141.9802 O   0  0  0  0  0  0  0  0  0  0  0  0
  127.3725  136.9017  144.0829 N   0  0  0  0  0  0  0  0  0  0  0  0
  126.7170  135.6620  144.3851 C   0  0  0  0  0  0  0  0  0  0  0  0
  126.3827  135.6764  145.8527 C   0  0  0  0  0  0  0  0  0  0  0  0
  127.0944  143.6668  149.4033 C   0  0  0  0  0  0  0  0  0  0  0  0
  1  2  1  0
  2  3  1  0
  3  4  1  6
  3  5  1  0
  5  6  2  0
  6  7  1  0
  7  8  2  0
  8  9  1  0
  9 10  1  0
 10 11  1  0
 11 12  2  0
 11 13  2  0
 11 14  1  0
 14 15  2  0
 15 16  1  0
 16 17  2  0
 17 18  1  0
 18 19  2  0
 18 20  1  0
 20 21  1  0
 21 22  1  0
 22 23  2  0
 22 24  1  0
 24 25  1  0
 25 26  1  0
  9 27  2  0
 27  5  1  0
 19 14  1  0
 26 16  1  0
 24 17  1  0
M  END
$$$$
