
     RDKit          3D

 27 30  0  0  0  0  0  0  0  0999 V2000
  125.4191  145.7516  150.7268 C   0  0  0  0  0  0  0  0  0  0  0  0
  126.6398  146.4751  150.1629 C   0  0  0  0  0  0  0  0  0  0  0  0
  126.7736  146.0084  148.7078 C   0  0  2  0  0  0  0  0  0  0  0  0
  125.4237  145.9501  148.0331 C   0  0  0  0  0  0  0  0  0  0  0  0
  127.4516  144.6781  148.6668 C   0  0  0  0  0  0  0  0  0  0  0  0
  128.6633  144.5018  149.3057 C   0  0  0  0  0  0  0  0  0  0  0  0
  129.2458  143.2566  149.2372 C   0  0  0  0  0  0  0  0  0  0  0  0
  128.6268  142.2071  148.5419 C   0  0  0  0  0  0  0  0  0  0  0  0
  127.4265  142.3716  147.9062 C   0  0  0  0  0  0  0  0  0  0  0  0
  126.7711  141.3440  147.1786 N   0  0  0  0  0  0  0  0  0  0  0  0
  127.2670  139.7365  146.9947 S   0  0  0  0  0  6  0  0  0  0  0  0
  128.4489  139.4032  147.8704 O   0  0  0  0  0  0  0  0  0  0  0  0
  126.1411  138.8239  147.4657 O   0  0  0  0  0  0  0  0  0  0  0  0
  127.5684  139.3039  145.3337 C   0  0  0  0  0  0  0  0  0  0  0  0
  127.8836  140.3380  144.4440 C   0  0  0  0  0  0  0  0  0  0  0  0
  128.1076  140.0281  143.1035 C   0  0  0  0  0  0  0  0  0  0  0  0
  128.0024  138.7087  142.7397 C   0  0  0  0  0  0  0  0  0  0  0  0
  127.6974  137.6821  143.5782 C   0  0  0  0  0  0  0  0  0  0  0  0
  127.4736  137.9910  144.9195 C   0  0  0  0  0  0  0  0  0  0  0  0
  127.5876  136.3020  143.0706 C   0  0  0  0  0  0  0  0  0  0  0  0
  128.5159  136.1118  141.9025 C   0  0  0  0  0  0  0  0  0  0  0  0
  128.2256  137.1601  140.8695 C   0  0  0  0  0  0  0  0  0  0  0  0
  127.9601  136.9661  139.6889 O   0  0  0  0  0  0  0  0  0  0  0  0
  128.2773  138.5185  141.3676 N   0  0  0  0  0  0  0  0  0  0  0  0
  128.5510  139.8033  140.7914 C   0  0  0  0  0  0  0  0  0  0  0  0
  128.4538  140.8212  141.8961 C   0  0  0  0  0  0  0  0  0  0  0  0
  126.8446  143.6445  147.9838 C   0  0  0  0  0  0  0  0  0  0  0  0
  1  2  1  0
  2  3  1  0
  3  4  1  1
  3  5  1  0
  5  6  2  0
  6  7  1  0
  7  8  2  0
  8  9  1  0
  9 10  1  0
 10 11  1  0
 11 12  2  0
 11 13  2  0
 11 14  1  0
 14 15  2  0
 15 16  1  0
 16 17  2  0
 17 18  1  0
 18 19  2  0
 18 20  1  0
 20 21  1  0
 21 22  1  0
 22 23  2  0
 22 24  1  0
 24 25  1  0
 25 26  1  0
  9 27  2  0
 27  5  1  0
 19 14  1  0
 26 16  1  0
 24 17  1  0
M  END
$$$$
