
     RDKit          3D

 19 20  0  0  0  0  0  0  0  0999 V2000
    2.4747   -4.3069  -58.0439 N   0  0  0  0  0  0  0  0  0  0  0  0
    1.0664   -4.5832  -57.9544 C   0  0  0  0  0  0  0  0  0  0  0  0
    0.8219   -5.6612  -57.0709 N   0  0  0  0  0  0  0  0  0  0  0  0
   -0.3860   -5.8012  -56.5857 O   0  0  0  0  0  0  0  0  0  0  0  0
   -0.8893   -7.0714  -56.7866 C   0  0  0  0  0  0  0  0  0  0  0  0
   -2.4106   -6.9265  -56.7612 C   0  0  0  0  0  0  0  0  0  0  0  0
   -2.8328   -6.0583  -57.8570 N   0  0  0  0  0  0  0  0  0  0  0  0
   -4.2634   -5.8712  -57.7804 C   0  0  0  0  0  0  0  0  0  0  0  0
   -4.7048   -4.6599  -57.0847 C   0  0  0  0  0  0  0  0  0  0  0  0
   -5.6841   -4.5545  -57.9642 C   0  0  0  0  0  0  0  0  0  0  0  0
   -4.8608   -5.0364  -58.8394 C   0  0  0  0  0  0  0  0  0  0  0  0
    0.4415   -4.8364  -59.2604 C   0  0  0  0  0  0  0  0  0  0  0  0
   -0.1494   -3.8238  -59.9824 C   0  0  0  0  0  0  0  0  0  0  0  0
   -0.7226   -4.1322  -61.2070 C   0  0  0  0  0  0  0  0  0  0  0  0
   -0.7020   -5.4301  -61.6949 C   0  0  0  0  0  0  0  0  0  0  0  0
   -1.4320   -5.8039  -63.2470 Cl  0  0  0  0  0  0  0  0  0  0  0  0
   -0.1140   -6.4485  -60.9808 C   0  0  0  0  0  0  0  0  0  0  0  0
   -0.0865   -8.0943  -61.5968 Cl  0  0  0  0  0  0  0  0  0  0  0  0
    0.4542   -6.1193  -59.7573 C   0  0  0  0  0  0  0  0  0  0  0  0
  1  2  1  0
  2  3  1  0
  3  4  1  0
  4  5  1  0
  5  6  1  0
  6  7  1  0
  7  8  1  0
  8  9  1  0
  9 10  2  0
 10 11  2  0
  2 12  1  0
 12 13  2  0
 13 14  1  0
 14 15  2  0
 15 16  1  0
 15 17  1  0
 17 18  1  0
 17 19  2  0
 11  8  1  0
 19 12  1  0
M  END
$$$$
