
     RDKit          3D

 27 28  0  0  0  0  0  0  0  0999 V2000
  149.7766  152.9025  147.1097 C   0  0  0  0  0  0  0  0  0  0  0  0
  150.8616  153.1222  146.0768 C   0  0  0  0  0  0  0  0  0  0  0  0
  152.2135  153.3217  146.8071 C   0  0  0  0  0  0  0  0  0  0  0  0
  153.3140  153.7035  145.8977 C   0  0  0  0  0  0  0  0  0  0  0  0
  154.5723  153.4615  145.7849 C   0  0  0  0  0  0  0  0  0  0  0  0
  155.6367  152.7138  146.4251 C   0  0  0  0  0  0  0  0  0  0  0  0
  156.2498  151.5567  146.3522 C   0  0  0  0  0  0  0  0  0  0  0  0
  156.2502  150.3735  145.6364 N   0  0  0  0  0  0  0  0  0  0  0  0
  155.5360  149.0673  145.7618 C   0  0  0  0  0  0  0  0  0  0  0  0
  154.3340  149.4626  146.5368 C   0  0  0  0  0  0  0  0  0  0  0  0
  153.3503  150.2534  146.0648 C   0  0  0  0  0  0  0  0  0  0  0  0
  153.1402  150.9012  144.8213 C   0  0  0  0  0  0  0  0  0  0  0  0
  152.0919  151.6554  144.3542 C   0  0  0  0  0  0  0  0  0  0  0  0
  150.9256  151.9132  145.1897 C   0  0  0  0  0  0  0  0  0  0  0  0
  149.9685  151.0821  145.2625 N   0  0  0  0  0  0  0  0  0  0  0  0
  149.7654  149.8338  144.5389 C   0  0  0  0  0  0  0  0  0  0  0  0
  151.0341  149.2880  144.1122 N   0  0  0  0  0  0  0  0  0  0  0  0
  151.3500  147.9593  144.5615 C   0  0  0  0  0  0  0  0  0  0  0  0
  150.5899  147.0279  143.6730 C   0  0  0  0  0  0  0  0  0  0  0  0
  149.8288  145.9762  144.2621 N   0  0  0  0  0  0  0  0  0  0  0  0
  150.5737  144.3831  143.9572 Cl  0  0  0  0  0  0  0  0  0  0  0  0
  148.5193  145.9121  143.5387 C   0  0  0  0  0  0  0  0  0  0  0  0
  147.6797  144.9046  144.2668 C   0  0  0  0  0  0  0  0  0  0  0  0
  147.5674  145.3828  145.9639 Cl  0  0  0  0  0  0  0  0  0  0  0  0
  152.7215  147.5777  144.8499 C   0  0  0  0  0  0  0  0  0  0  0  0
  153.8334  148.1526  144.0908 C   0  0  0  0  0  0  0  0  0  0  0  0
  154.9361  148.7358  144.4196 C   0  0  0  0  0  0  0  0  0  0  0  0
  1  2  1  0
  2  3  1  0
  3  4  1  0
  4  5  2  0
  5  6  1  0
  6  7  2  0
  7  8  1  0
  8  9  1  0
  9 10  1  0
 10 11  2  0
 11 12  1  0
 12 13  2  0
 13 14  1  0
 14 15  2  0
 15 16  1  0
 16 17  1  0
 17 18  1  0
 18 19  1  0
 19 20  1  0
 20 21  1  0
 20 22  1  0
 22 23  1  0
 23 24  1  0
 18 25  1  0
 25 26  1  0
 26 27  2  0
 14  2  1  0
 27  9  1  0
M  END
$$$$
