
     RDKit          3D

 24 26  0  0  0  0  0  0  0  0999 V2000
    5.9725   28.2458   -5.1566 C   0  0  0  0  0  1  0  0  0  0  0  0
    6.6609   28.1532   -6.4645 C   0  0  0  0  0  0  0  0  0  0  0  0
    5.8204   28.5932   -7.6303 C   0  0  0  0  0  0  0  0  0  0  0  0
    4.8682   27.5417   -7.9380 N   0  0  0  0  0  0  0  0  0  0  0  0
    3.4889   27.5829   -7.6727 C   0  0  0  0  0  0  0  0  0  0  0  0
    2.9101   28.5937   -6.9889 N   0  0  0  0  0  0  0  0  0  0  0  0
    1.6097   28.6989   -6.7369 C   0  0  0  0  0  0  0  0  0  0  0  0
    0.9894   29.7530   -6.0333 N   0  0  0  0  0  0  0  0  0  0  0  0
    1.6330   30.9183   -5.5540 C   0  0  0  0  0  0  0  0  0  0  0  0
    1.5049   31.3118   -4.3034 C   0  0  0  0  0  0  0  0  0  0  0  0
    2.1467   32.4985   -3.7715 C   0  0  0  0  0  0  0  0  0  0  0  0
    2.0171   32.8894   -2.5167 C   0  0  0  0  0  0  0  0  0  0  0  0
    1.8755   31.6210   -1.2938 Cl  0  0  0  0  0  0  0  0  0  0  0  0
    2.9694   33.2820   -4.6779 C   0  0  0  0  0  0  0  0  0  0  0  0
    3.7914   34.7415   -4.1271 Cl  0  0  0  0  0  0  0  0  0  0  0  0
    3.0704   32.8511   -5.9233 C   0  0  0  0  0  0  0  0  0  0  0  0
    2.4230   31.6905   -6.3812 O   0  0  0  0  0  0  0  0  0  0  0  0
    0.8325   27.6999   -7.2154 N   0  0  0  0  0  0  0  0  0  0  0  0
    1.2836   26.6521   -7.9024 C   0  0  0  0  0  0  0  0  0  0  0  0
    0.4465   25.6525   -8.3715 C   0  0  0  0  0  0  0  0  0  0  0  0
    0.9137   24.5734   -9.0782 C   0  0  0  0  0  0  0  0  0  0  0  0
    2.2514   24.4909   -9.3223 C   0  0  0  0  0  0  0  0  0  0  0  0
    3.0878   25.4916   -8.8524 C   0  0  0  0  0  0  0  0  0  0  0  0
    2.6616   26.5884   -8.1414 C   0  0  0  0  0  0  0  0  0  0  0  0
  1  2  1  0
  2  3  1  0
  3  4  1  0
  4  5  1  0
  5  6  2  0
  6  7  1  0
  7  8  1  0
  8  9  1  0
  9 10  2  0
 10 11  1  0
 11 12  2  3
 12 13  1  0
 11 14  1  0
 14 15  1  0
 14 16  2  0
 16 17  1  0
  7 18  2  0
 18 19  1  0
 19 20  2  0
 20 21  1  0
 21 22  2  0
 22 23  1  0
 23 24  2  0
 24  5  1  0
 17  9  1  0
 24 19  1  0
M  CHG  1   1  -1
M  RAD  1   1   3
M  END
$$$$
