
     RDKit          3D

  8  8  0  0  0  0  0  0  0  0999 V2000
  127.8813  136.7805  142.2722 C   0  0  0  0  0  0  0  0  0  0  0  0
  128.4002  137.6105  141.1473 C   0  0  0  0  0  0  0  0  0  0  0  0
  128.7244  138.9425  141.3124 C   0  0  0  0  0  0  0  0  0  0  0  0
  129.2054  139.7223  140.2810 C   0  0  0  0  0  0  0  0  0  0  0  0
  129.3846  139.1911  139.0202 C   0  0  0  0  0  0  0  0  0  0  0  0
  129.0606  137.8599  138.8550 C   0  0  0  0  0  0  0  0  0  0  0  0
  128.5791  137.0752  139.8834 C   0  0  0  0  0  0  0  0  0  0  0  0
  128.2453  135.7035  139.7131 N   0  0  0  0  0  0  0  0  0  0  0  0
  1  2  1  0
  2  3  2  0
  3  4  1  0
  4  5  2  0
  5  6  1  0
  6  7  2  0
  7  8  1  0
  7  2  1  0
M  END
$$$$
