
     RDKit          3D

 25 26  0  0  0  0  0  0  0  0999 V2000
    6.2513   31.4643   -1.0634 C   0  0  0  0  0  0  0  0  0  0  0  0
    5.2912   30.5193   -1.7389 C   0  0  0  0  0  0  0  0  0  0  0  0
    5.6965   30.1850   -3.0322 O   0  0  0  0  0  0  0  0  0  0  0  0
    5.0832   29.3116   -3.8896 C   0  0  0  0  0  0  0  0  0  0  0  0
    3.8829   28.7022   -3.5697 C   0  0  0  0  0  0  0  0  0  0  0  0
    3.2374   27.8121   -4.4206 C   0  0  0  0  0  0  0  0  0  0  0  0
    3.8501   27.5480   -5.6298 C   0  0  0  0  0  0  0  0  0  0  0  0
    3.1959   26.5871   -6.5974 C   0  0  0  0  0  0  0  0  0  0  0  0
    1.8169   26.9337   -6.7009 N   0  0  0  0  0  0  0  0  0  0  0  0
    1.5444   27.9096   -7.7092 C   0  0  0  0  0  0  0  0  0  0  0  0
    0.7742   27.2327   -8.8378 C   0  0  0  0  0  0  0  0  0  0  0  0
    0.8872   29.1443   -7.2137 C   0  0  0  0  0  0  0  0  0  0  0  0
   -0.0578   29.7093   -8.0528 O   0  0  0  0  0  0  0  0  0  0  0  0
    1.8779   30.1698   -6.7503 C   0  0  0  0  0  0  0  0  0  0  0  0
    2.7723   30.7258   -7.6392 C   0  0  0  0  0  0  0  0  0  0  0  0
    2.7998   30.3833   -8.9506 F   0  0  0  0  0  0  0  0  0  0  0  0
    3.6719   31.6668   -7.1726 C   0  0  0  0  0  0  0  0  0  0  0  0
    3.6551   32.0287   -5.8290 C   0  0  0  0  0  0  0  0  0  0  0  0
    2.7702   31.4845   -4.9286 C   0  0  0  0  0  0  0  0  0  0  0  0
    1.8769   30.5410   -5.4242 C   0  0  0  0  0  0  0  0  0  0  0  0
    0.7474   29.8499   -4.2646 Cl  0  0  0  0  0  0  0  0  0  0  0  0
    5.0429   28.1487   -5.9562 C   0  0  0  0  0  0  0  0  0  0  0  0
    5.6741   29.0289   -5.1068 C   0  0  0  0  0  0  0  0  0  0  0  0
    6.8912   29.6237   -5.4728 O   0  0  0  0  0  0  0  0  0  0  0  0
    7.4839   29.3471   -6.7268 C   0  0  0  0  0  0  0  0  0  0  0  0
  1  2  1  0
  2  3  1  0
  3  4  1  0
  4  5  2  0
  5  6  1  0
  6  7  2  0
  7  8  1  0
  8  9  1  0
  9 10  1  0
 10 11  1  0
 10 12  1  0
 12 13  1  0
 12 14  1  0
 14 15  2  0
 15 16  1  0
 15 17  1  0
 17 18  2  0
 18 19  1  0
 19 20  2  0
 20 21  1  0
  7 22  1  0
 22 23  2  0
 23 24  1  0
 24 25  1  0
 23  4  1  0
 20 14  1  0
M  END
$$$$
