
     RDKit          3D

 20 22  0  0  0  0  0  0  0  0999 V2000
  128.1207  142.0607  141.8436 Cl  0  0  0  0  0  0  0  0  0  0  0  0
  127.8642  140.5918  142.8733 C   0  0  0  0  0  0  0  0  0  0  0  0
  126.6182  140.2071  143.0312 C   0  0  0  0  0  0  0  0  0  0  0  0
  126.0609  139.1460  143.7421 N   0  0  0  0  0  0  0  0  0  0  0  0
  126.1778  137.7511  143.5013 C   0  0  0  0  0  0  0  0  0  0  0  0
  125.5516  136.8508  144.2542 N   0  0  0  0  0  0  0  0  0  0  0  0
  125.1107  135.6454  143.5598 C   0  0  0  0  0  0  0  0  0  0  0  0
  124.5588  134.5780  144.3576 C   0  0  0  0  0  0  0  0  0  0  0  0
  125.3590  133.5074  144.2760 C   0  0  0  0  0  0  0  0  0  0  0  0
  126.4897  133.8284  143.4192 C   0  0  0  0  0  0  0  0  0  0  0  0
  126.3722  135.0502  143.0029 C   0  0  0  0  0  0  0  0  0  0  0  0
  127.1628  136.0023  142.1998 C   0  0  0  0  0  0  0  0  0  0  0  0
  126.9759  137.2214  142.4750 N   0  0  0  0  0  0  0  0  0  0  0  0
  128.0652  135.5000  141.2525 N   0  0  0  0  0  0  0  0  0  0  0  0
  129.1421  136.2625  140.6728 C   0  0  0  0  0  0  0  0  0  0  0  0
  129.0993  137.7381  141.0617 C   0  0  0  0  0  0  0  0  0  0  0  0
  129.3507  137.8583  142.4098 O   0  0  0  0  0  0  0  0  0  0  0  0
  129.6898  138.9061  143.2001 C   0  0  0  0  0  0  0  0  0  0  0  0
  129.0980  140.0590  143.4162 C   0  0  0  0  0  0  0  0  0  0  0  0
  130.0334  141.1581  144.5329 Cl  0  0  0  0  0  0  0  0  0  0  0  0
  1  2  1  0
  2  3  2  0
  3  4  1  0
  4  5  1  0
  5  6  2  0
  6  7  1  0
  7  8  1  0
  8  9  2  0
  9 10  1  0
 10 11  2  0
 11 12  1  0
 12 13  2  0
 12 14  1  0
 14 15  1  0
 15 16  1  0
 16 17  1  0
 17 18  1  0
 18 19  2  0
 19 20  1  0
 19  2  1  0
 13  5  1  0
 11  7  1  0
M  END
$$$$
