
     RDKit          3D

 20 22  0  0  0  0  0  0  0  0999 V2000
  127.3130  125.9666   74.8674 Cl  0  0  0  0  0  0  0  0  0  0  0  0
  126.3030  127.4706   74.9032 C   0  0  0  0  0  0  0  0  0  0  0  0
  125.1080  127.3518   75.4357 C   0  0  0  0  0  0  0  0  0  0  0  0
  124.0836  128.2773   75.6249 N   0  0  0  0  0  0  0  0  0  0  0  0
  124.0540  129.4146   76.4752 C   0  0  0  0  0  0  0  0  0  0  0  0
  122.9791  130.1918   76.5757 N   0  0  0  0  0  0  0  0  0  0  0  0
  122.7497  130.7834   77.8898 C   0  0  0  0  0  0  0  0  0  0  0  0
  121.6839  131.7475   78.0125 C   0  0  0  0  0  0  0  0  0  0  0  0
  122.2034  132.9423   78.3220 C   0  0  0  0  0  0  0  0  0  0  0  0
  123.6500  132.8187   78.4090 C   0  0  0  0  0  0  0  0  0  0  0  0
  123.9863  131.5924   78.1585 C   0  0  0  0  0  0  0  0  0  0  0  0
  125.2341  130.8194   78.0101 C   0  0  0  0  0  0  0  0  0  0  0  0
  125.1557  129.8147   77.2478 N   0  0  0  0  0  0  0  0  0  0  0  0
  126.3876  131.2665   78.6687 N   0  0  0  0  0  0  0  0  0  0  0  0
  127.7261  130.8481   78.3362 C   0  0  0  0  0  0  0  0  0  0  0  0
  127.7561  129.7254   77.3022 C   0  0  0  0  0  0  0  0  0  0  0  0
  127.2944  130.2067   76.0980 O   0  0  0  0  0  0  0  0  0  0  0  0
  127.3606  129.7415   74.8266 C   0  0  0  0  0  0  0  0  0  0  0  0
  126.9613  128.6089   74.2936 C   0  0  0  0  0  0  0  0  0  0  0  0
  127.3685  128.4563   72.5213 Cl  0  0  0  0  0  0  0  0  0  0  0  0
  1  2  1  0
  2  3  2  0
  3  4  1  0
  4  5  1  0
  5  6  2  0
  6  7  1  0
  7  8  1  0
  8  9  2  0
  9 10  1  0
 10 11  2  0
 11 12  1  0
 12 13  2  0
 12 14  1  0
 14 15  1  0
 15 16  1  0
 16 17  1  0
 17 18  1  0
 18 19  2  0
 19 20  1  0
 19  2  1  0
 13  5  1  0
 11  7  1  0
M  END
$$$$
