
     RDKit          3D

 34 33  0  0  0  0  0  0  0  0999 V2000
   14.1948   36.6101    8.1350 C   0  0  0  0  0  0  0  0  0  0  0  0
   13.8798   35.5072    7.4298 C   0  0  0  0  0  0  0  0  0  0  0  0
   12.6702   34.7446    7.8469 C   0  0  0  0  0  0  0  0  0  0  0  0
   12.7527   33.5055    7.2970 O   0  0  0  0  0  0  0  0  0  0  0  0
   13.7637   32.7042    7.8745 C   0  0  0  0  0  0  0  0  0  0  0  0
   13.2340   31.2614    7.5417 C   0  0  0  0  0  0  0  0  0  0  0  0
   14.1458   30.6538    6.5731 C   0  0  0  0  0  0  0  0  0  0  0  0
   14.3047   29.1837    6.8715 C   0  0  0  0  0  0  0  0  0  0  0  0
   14.4118   28.4215    5.5897 C   0  0  0  0  0  0  0  0  0  0  0  0
   15.7132   27.7890    5.3933 N   0  0  0  0  0  0  0  0  0  0  0  0
   15.8043   27.5324    3.9915 C   0  0  0  0  0  0  0  0  0  0  0  0
   16.7055   26.7396    3.6516 C   0  0  0  0  0  0  0  0  0  0  0  0
   17.7449   25.8036    3.2364 C   0  0  0  0  0  0  0  0  0  0  0  0
   18.6887   24.9316    2.8698 C   0  0  0  0  0  0  0  0  0  0  0  0
   19.4016   24.1979    3.8320 C   0  0  0  0  0  0  0  0  0  0  0  0
   20.2726   23.1507    3.2121 C   0  0  0  0  0  0  0  0  0  0  0  0
   21.5739   23.6898    3.0513 C   0  0  0  0  0  0  0  0  0  0  0  0
   22.7171   24.1445    2.9235 C   0  0  0  0  0  0  0  0  0  0  0  0
   24.0993   24.7059    2.7520 N   0  0  0  0  0  0  0  0  0  0  0  0
   24.5102   23.8347    1.8071 C   0  0  0  0  0  0  0  0  0  0  0  0
   24.9364   22.9484    0.8539 C   0  0  0  0  0  0  0  0  0  0  0  0
   24.2341   22.0014    0.1198 N   0  0  0  0  0  0  0  0  0  0  0  0
   23.7817   22.1756   -1.1558 C   0  0  0  0  0  0  0  0  0  0  0  0
   24.2903   20.9643   -2.0209 C   0  0  0  0  0  0  0  0  0  0  0  0
   23.6253   21.0836   -3.2391 O   0  0  0  0  0  0  0  0  0  0  0  0
   25.9918   23.8543    2.6607 N   0  0  0  0  0  0  0  0  0  0  0  0
   26.7218   24.9048    2.9363 C   0  0  0  0  0  0  0  0  0  0  0  0
   27.8732   25.3820    3.3296 C   0  0  0  0  0  0  0  0  0  0  0  0
   28.3560   26.7084    3.2963 C   0  0  0  0  0  0  0  0  0  0  0  0
   28.7018   27.5326    2.3095 C   0  0  0  0  0  0  0  0  0  0  0  0
   28.7868   26.7252    0.6829 Cl  0  0  0  0  0  0  0  0  0  0  0  0
   29.1893   28.9089    2.3148 C   0  0  0  0  0  0  0  0  0  0  0  0
   28.6839   29.7943    3.3106 N   0  0  0  0  0  0  0  0  0  0  0  0
   30.9253   29.1160    2.0991 Cl  0  0  0  0  0  0  0  0  0  0  0  0
  1  2  2  0
  2  3  1  0
  3  4  1  0
  4  5  1  0
  5  6  1  0
  6  7  1  0
  7  8  1  0
  8  9  1  0
  9 10  1  0
 10 11  2  3
 11 12  1  0
 12 13  3  0
 13 14  1  0
 14 15  2  3
 15 16  1  0
 16 17  1  0
 17 18  3  0
 18 19  1  0
 19 20  2  3
 20 21  1  0
 21 22  1  0
 22 23  1  0
 23 24  1  0
 24 25  1  0
 20 26  1  0
 26 27  1  0
 27 28  2  3
 28 29  1  0
 29 30  2  3
 30 31  1  0
 30 32  1  0
 32 33  1  0
 32 34  1  0
M  END
$$$$
