
     RDKit          3D

 18 19  0  0  0  0  0  0  0  0999 V2000
  151.4744  155.1897  151.5276 C   0  0  0  0  0  0  0  0  0  0  0  0
  150.9731  154.8083  150.1612 C   0  0  0  0  0  0  0  0  0  0  0  0
  151.8169  154.1512  149.3827 C   0  0  0  0  0  0  0  0  0  0  0  0
  151.3819  153.8198  148.0697 N   0  0  0  0  0  0  0  0  0  0  0  0
  152.0764  153.0089  147.3904 C   0  0  0  0  0  0  0  0  0  0  0  0
  153.5474  153.2488  147.5513 C   0  0  0  0  0  0  0  0  0  0  0  0
  154.1169  153.3207  146.1721 C   0  0  0  0  0  0  0  0  0  0  0  0
  152.9408  153.6013  144.9024 Cl  0  0  0  0  0  0  0  0  0  0  0  0
  155.0099  152.1252  145.9368 C   0  0  0  0  0  0  0  0  0  0  0  0
  156.0145  152.3953  144.8317 C   0  0  0  0  0  0  0  0  0  0  0  0
  156.5541  153.3462  145.7359 O   0  0  0  0  0  0  0  0  0  0  0  0
  156.2781  152.3508  146.7161 C   0  0  0  0  0  0  0  0  0  0  0  0
  157.5669  151.1902  146.6502 Cl  0  0  0  0  0  0  0  0  0  0  0  0
  154.3755  150.8394  145.9647 C   0  0  0  0  0  0  0  0  0  0  0  0
  155.2879  149.6704  146.1023 C   0  0  0  0  0  0  0  0  0  0  0  0
  153.1043  150.4222  145.8930 C   0  0  0  0  0  0  0  0  0  0  0  0
  151.7278  150.9191  145.7596 C   0  0  0  0  0  0  0  0  0  0  0  0
  151.4126  152.0390  146.6135 N   0  0  0  0  0  0  0  0  0  0  0  0
  1  2  1  0
  2  3  2  3
  3  4  1  0
  4  5  2  3
  5  6  1  0
  6  7  1  0
  7  8  1  0
  7  9  1  0
  9 10  1  0
 10 11  1  0
 11 12  1  0
 12 13  1  0
  9 14  1  0
 14 15  1  0
 14 16  2  0
 16 17  1  0
 17 18  1  0
 18  5  1  0
 12  9  1  0
M  END
$$$$
