
     RDKit          3D

 23 25  0  0  0  0  0  0  0  0999 V2000
  114.4720  147.5111  150.1871 C   0  0  0  0  0  0  0  0  0  0  0  0
  115.8797  147.9949  150.4646 C   0  0  0  0  0  0  0  0  0  0  0  0
  115.8078  149.5248  150.3168 C   0  0  0  0  0  0  0  0  0  0  0  0
  116.7970  147.5658  149.5653 O   0  0  0  0  0  0  0  0  0  0  0  0
  117.7782  148.4077  149.1558 C   0  0  0  0  0  0  0  0  0  0  0  0
  117.9863  148.3172  147.6994 C   0  0  0  0  0  0  0  0  0  0  0  0
  119.2008  147.8553  147.2410 C   0  0  0  0  0  0  0  0  0  0  0  0
  119.4785  147.7517  145.8816 C   0  0  0  0  0  0  0  0  0  0  0  0
  118.5286  148.1150  144.9665 C   0  0  0  0  0  0  0  0  0  0  0  0
  118.7889  148.0179  143.5515 C   0  0  0  0  0  0  0  0  0  0  0  0
  117.8686  148.3709  142.7432 O   0  0  0  0  0  0  0  0  0  0  0  0
  120.0266  147.5459  143.0082 N   0  0  0  0  0  0  0  0  0  0  0  0
  120.1653  147.6539  141.5731 C   0  0  0  0  0  0  0  0  0  0  0  0
  121.1919  147.3152  140.8142 N   0  0  0  0  0  0  0  0  0  0  0  0
  121.1394  147.4856  139.5260 C   0  0  0  0  0  0  0  0  0  0  0  0
  122.1652  147.1653  138.6100 C   0  0  0  0  0  0  0  0  0  0  0  0
  121.9711  147.3982  137.2901 C   0  0  0  0  0  0  0  0  0  0  0  0
  120.8342  147.9355  136.7237 C   0  0  0  0  0  0  0  0  0  0  0  0
  119.8274  148.2487  137.6324 C   0  0  0  0  0  0  0  0  0  0  0  0
  119.9901  148.0226  139.0072 C   0  0  0  0  0  0  0  0  0  0  0  0
  119.0504  148.2503  140.4156 S   0  0  0  0  0  0  0  0  0  0  0  0
  117.3119  148.5779  145.4021 C   0  0  0  0  0  0  0  0  0  0  0  0
  117.0488  148.6761  146.7655 C   0  0  0  0  0  0  0  0  0  0  0  0
  1  2  1  0
  2  3  1  0
  2  4  1  0
  4  5  1  0
  5  6  1  0
  6  7  2  0
  7  8  1  0
  8  9  2  0
  9 10  1  0
 10 11  2  0
 10 12  1  0
 12 13  1  0
 13 14  2  0
 14 15  1  0
 15 16  2  0
 16 17  1  0
 17 18  2  0
 18 19  1  0
 19 20  2  0
 20 21  1  0
  9 22  1  0
 22 23  2  0
 23  6  1  0
 21 13  1  0
 20 15  1  0
M  END
$$$$
