
     RDKit          3D

 22 24  0  0  0  0  0  0  0  0999 V2000
    4.9996    2.3494  -33.9548 C   0  0  0  0  0  0  0  0  0  0  0  0
    3.6418    1.7855  -33.7151 C   0  0  0  0  0  0  0  0  0  0  0  0
    2.4922    2.5189  -33.8427 C   0  0  0  0  0  0  0  0  0  0  0  0
    1.2097    1.9734  -33.6293 C   0  0  0  0  0  0  0  0  0  0  0  0
    0.1162    2.8307  -33.8007 N   0  0  0  0  0  0  0  0  0  0  0  0
    0.0524    4.2297  -33.8885 C   0  0  0  0  0  0  0  0  0  0  0  0
    1.2241    4.9944  -33.7867 C   0  0  0  0  0  0  0  0  0  0  0  0
    1.2777    6.3454  -33.9300 C   0  0  0  0  0  0  0  0  0  0  0  0
    2.5003    7.1786  -33.8111 C   0  0  0  0  0  0  0  0  0  0  0  0
    2.1065    8.5008  -33.7891 F   0  0  0  0  0  0  0  0  0  0  0  0
    3.3690    6.9643  -34.8572 F   0  0  0  0  0  0  0  0  0  0  0  0
    3.1077    6.9315  -32.5927 F   0  0  0  0  0  0  0  0  0  0  0  0
    0.0669    6.9973  -34.1994 C   0  0  0  0  0  0  0  0  0  0  0  0
   -1.1070    6.3041  -34.3098 C   0  0  0  0  0  0  0  0  0  0  0  0
   -1.0985    4.9030  -34.1504 C   0  0  0  0  0  0  0  0  0  0  0  0
   -2.3251    4.3532  -34.3215 F   0  0  0  0  0  0  0  0  0  0  0  0
    1.1975    0.6893  -33.2927 N   0  0  0  0  0  0  0  0  0  0  0  0
    0.2339   -0.1447  -33.0301 N   0  0  0  0  0  0  0  0  0  0  0  0
    0.6674   -1.3724  -32.7334 C   0  0  0  0  0  0  0  0  0  0  0  0
    2.0098   -1.3197  -32.8159 N   0  0  0  0  0  0  0  0  0  0  0  0
    2.3366   -0.0424  -33.1633 C   0  0  0  0  0  0  0  0  0  0  0  0
    3.5434    0.4795  -33.3660 N   0  0  0  0  0  0  0  0  0  0  0  0
  1  2  1  0
  2  3  1  0
  3  4  2  0
  4  5  1  0
  5  6  1  0
  6  7  2  0
  7  8  1  0
  8  9  1  0
  9 10  1  0
  9 11  1  0
  9 12  1  0
  8 13  2  0
 13 14  1  0
 14 15  2  0
 15 16  1  0
  4 17  1  0
 17 18  1  0
 18 19  2  0
 19 20  1  0
 20 21  2  0
 21 22  1  0
 22  2  2  0
 15  6  1  0
 21 17  1  0
M  END
$$$$
