
     RDKit          3D

 22 24  0  0  0  0  0  0  0  0999 V2000
    3.1374   25.7122   -5.6666 C   0  0  0  0  0  0  0  0  0  0  0  0
    2.5220   26.8987   -6.3243 C   0  0  0  0  0  0  0  0  0  0  0  0
    2.8164   28.1887   -5.9706 C   0  0  0  0  0  0  0  0  0  0  0  0
    2.2412   29.3066   -6.6089 C   0  0  0  0  0  0  0  0  0  0  0  0
    2.6345   30.5714   -6.1551 N   0  0  0  0  0  0  0  0  0  0  0  0
    3.3996   30.9493   -5.0413 C   0  0  0  0  0  0  0  0  0  0  0  0
    4.6185   30.3077   -4.7756 C   0  0  0  0  0  0  0  0  0  0  0  0
    5.4649   30.6479   -3.7673 C   0  0  0  0  0  0  0  0  0  0  0  0
    6.7509   29.9755   -3.4555 C   0  0  0  0  0  0  0  0  0  0  0  0
    6.9654   30.0893   -2.0972 F   0  0  0  0  0  0  0  0  0  0  0  0
    7.8017   30.5360   -4.1458 F   0  0  0  0  0  0  0  0  0  0  0  0
    6.6378   28.6223   -3.7210 F   0  0  0  0  0  0  0  0  0  0  0  0
    5.0725   31.7172   -2.9512 C   0  0  0  0  0  0  0  0  0  0  0  0
    3.8952   32.3807   -3.1623 C   0  0  0  0  0  0  0  0  0  0  0  0
    3.0588   31.9807   -4.2248 C   0  0  0  0  0  0  0  0  0  0  0  0
    1.9489   32.7507   -4.3305 F   0  0  0  0  0  0  0  0  0  0  0  0
    1.3875   29.0161   -7.5831 N   0  0  0  0  0  0  0  0  0  0  0  0
    0.6818   29.7562   -8.3875 N   0  0  0  0  0  0  0  0  0  0  0  0
   -0.0598   29.0458   -9.2410 C   0  0  0  0  0  0  0  0  0  0  0  0
    0.1937   27.7535   -8.9630 N   0  0  0  0  0  0  0  0  0  0  0  0
    1.0910   27.7367   -7.9365 C   0  0  0  0  0  0  0  0  0  0  0  0
    1.6377   26.6867   -7.3293 N   0  0  0  0  0  0  0  0  0  0  0  0
  1  2  1  0
  2  3  1  0
  3  4  2  0
  4  5  1  0
  5  6  1  0
  6  7  2  0
  7  8  1  0
  8  9  1  0
  9 10  1  0
  9 11  1  0
  9 12  1  0
  8 13  2  0
 13 14  1  0
 14 15  2  0
 15 16  1  0
  4 17  1  0
 17 18  1  0
 18 19  2  0
 19 20  1  0
 20 21  2  0
 21 22  1  0
 22  2  2  0
 15  6  1  0
 21 17  1  0
M  END
$$$$
