
     RDKit          3D

 27 29  0  0  0  0  0  0  0  0999 V2000
  152.4712  157.1410  154.2699 C   0  0  0  0  0  0  0  0  0  0  0  0
  151.3391  157.6890  153.3845 C   0  0  0  0  0  0  0  0  0  0  0  0
  151.5230  157.0705  152.0423 C   0  0  0  0  0  0  0  0  0  0  0  0
  151.0670  155.7981  151.8481 O   0  0  0  0  0  0  0  0  0  0  0  0
  151.0160  154.9733  150.7672 C   0  0  0  0  0  0  0  0  0  0  0  0
  151.6755  155.2583  149.5920 C   0  0  0  0  0  0  0  0  0  0  0  0
  151.5700  154.3602  148.5445 C   0  0  0  0  0  0  0  0  0  0  0  0
  150.8483  153.1904  148.5858 C   0  0  0  0  0  0  0  0  0  0  0  0
  150.7921  152.3034  147.4361 C   0  0  0  0  0  0  0  0  0  0  0  0
  150.0081  151.3207  147.4977 O   0  0  0  0  0  0  0  0  0  0  0  0
  151.5373  152.4426  146.2539 N   0  0  0  0  0  0  0  0  0  0  0  0
  151.7564  151.3955  145.3217 C   0  0  0  0  0  0  0  0  0  0  0  0
  150.7563  150.6827  144.7365 N   0  0  0  0  0  0  0  0  0  0  0  0
  151.2850  149.8040  143.9326 O   0  0  0  0  0  0  0  0  0  0  0  0
  152.5762  149.9059  143.9625 N   0  0  0  0  0  0  0  0  0  0  0  0
  152.9149  150.9043  144.8324 C   0  0  0  0  0  0  0  0  0  0  0  0
  154.2510  151.3600  145.1675 C   0  0  0  0  0  0  0  0  0  0  0  0
  154.4942  152.7172  145.1761 C   0  0  0  0  0  0  0  0  0  0  0  0
  155.7390  153.2423  145.4765 C   0  0  0  0  0  0  0  0  0  0  0  0
  156.7798  152.4185  145.7781 C   0  0  0  0  0  0  0  0  0  0  0  0
  158.0457  152.9427  146.0841 O   0  0  0  0  0  0  0  0  0  0  0  0
  158.2610  154.3321  145.9410 C   0  0  0  0  0  0  0  0  0  0  0  0
  156.5642  151.0517  145.7769 C   0  0  0  0  0  0  0  0  0  0  0  0
  157.7171  150.1839  146.1092 C   0  0  0  0  0  0  0  0  0  0  0  0
  155.3118  150.5381  145.4740 C   0  0  0  0  0  0  0  0  0  0  0  0
  150.1933  152.9210  149.7708 C   0  0  0  0  0  0  0  0  0  0  0  0
  150.2669  153.7803  150.8397 C   0  0  0  0  0  0  0  0  0  0  0  0
  1  2  1  0
  2  3  1  0
  3  4  1  0
  4  5  1  0
  5  6  2  0
  6  7  1  0
  7  8  2  0
  8  9  1  0
  9 10  2  0
  9 11  1  0
 11 12  1  0
 12 13  2  0
 13 14  1  0
 14 15  1  0
 15 16  2  0
 16 17  1  0
 17 18  2  0
 18 19  1  0
 19 20  2  0
 20 21  1  0
 21 22  1  0
 20 23  1  0
 23 24  1  0
 23 25  2  0
  8 26  1  0
 26 27  2  0
 27  5  1  0
 16 12  1  0
 25 17  1  0
M  END
$$$$
