
     RDKit          3D

 24 26  0  0  0  0  0  0  0  0999 V2000
  164.7457  144.1132  156.8764 C   0  0  0  0  0  0  0  0  0  0  0  0
  165.2993  143.1975  157.8976 C   0  0  0  0  0  0  0  0  0  0  0  0
  165.1049  143.5328  159.1622 C   0  0  0  0  0  0  0  0  0  0  0  0
  166.4189  143.1272  160.1053 P   0  0  0  0  0  0  0  0  0  0  0  0
  167.8684  142.6549  159.0526 C   0  0  0  0  0  0  0  0  0  0  0  0
  167.5022  142.1053  157.8995 C   0  0  0  0  0  0  0  0  0  0  0  0
  168.4902  141.6685  156.9308 C   0  0  0  0  0  0  0  0  0  0  0  0
  169.8854  141.7429  157.1999 N   0  0  0  0  0  0  0  0  0  0  0  0
  170.8234  141.2226  156.2748 C   0  0  0  0  0  0  0  0  0  0  0  0
  171.2422  139.8043  156.5044 C   0  0  0  0  0  0  0  0  0  0  0  0
  172.2613  139.6980  157.4529 O   0  0  0  0  0  0  0  0  0  0  0  0
  168.1258  141.1975  155.7959 N   0  0  0  0  0  0  0  0  0  0  0  0
  166.7496  141.0834  155.4664 C   0  0  0  0  0  0  0  0  0  0  0  0
  166.3934  140.5784  154.1894 N   0  0  0  0  0  0  0  0  0  0  0  0
  167.2760  139.9067  153.3215 C   0  0  0  0  0  0  0  0  0  0  0  0
  168.6251  139.7916  153.6565 C   0  0  0  0  0  0  0  0  0  0  0  0
  169.5540  139.1550  152.8749 C   0  0  0  0  0  0  0  0  0  0  0  0
  169.1257  138.5896  151.6763 C   0  0  0  0  0  0  0  0  0  0  0  0
  170.2959  137.7713  150.6611 Cl  0  0  0  0  0  0  0  0  0  0  0  0
  167.8131  138.6782  151.3089 C   0  0  0  0  0  0  0  0  0  0  0  0
  167.2763  137.9748  149.8029 Cl  0  0  0  0  0  0  0  0  0  0  0  0
  166.8942  139.3380  152.1367 C   0  0  0  0  0  0  0  0  0  0  0  0
  165.8361  141.4324  156.2912 N   0  0  0  0  0  0  0  0  0  0  0  0
  166.0367  141.9551  157.6065 C   0  0  0  0  0  0  0  0  0  0  0  0
  1  2  1  0
  2  3  2  0
  3  4  2  0
  4  5  1  0
  5  6  2  0
  6  7  1  0
  7  8  1  0
  8  9  1  0
  9 10  1  0
 10 11  1  0
  7 12  2  0
 12 13  1  0
 13 14  1  0
 14 15  1  0
 15 16  2  0
 16 17  1  0
 17 18  2  0
 18 19  1  0
 18 20  1  0
 20 21  1  0
 20 22  2  0
 13 23  2  0
 23 24  1  0
 24  2  1  0
 24  6  1  0
 22 15  1  0
M  END
$$$$
