
     RDKit          3D

 24 26  0  0  0  0  0  0  0  0999 V2000
  153.1659  149.8631  142.2269 C   0  0  0  0  0  0  0  0  0  0  0  0
  152.9227  148.6099  142.9740 C   0  0  0  0  0  0  0  0  0  0  0  0
  152.9839  147.4852  142.2808 C   0  0  0  0  0  0  0  0  0  0  0  0
  151.8579  146.3795  142.8195 P   0  0  0  0  0  0  0  0  0  0  0  0
  150.6494  147.1759  143.9761 C   0  0  0  0  0  0  0  0  0  0  0  0
  151.1865  148.1798  144.6611 C   0  0  0  0  0  0  0  0  0  0  0  0
  150.4028  148.9368  145.6192 C   0  0  0  0  0  0  0  0  0  0  0  0
  149.0542  148.5955  145.9183 N   0  0  0  0  0  0  0  0  0  0  0  0
  148.3946  149.1814  147.0266 C   0  0  0  0  0  0  0  0  0  0  0  0
  147.2898  150.1345  146.6938 C   0  0  0  0  0  0  0  0  0  0  0  0
  147.6552  151.4657  146.9031 O   0  0  0  0  0  0  0  0  0  0  0  0
  150.9128  149.9425  146.2283 N   0  0  0  0  0  0  0  0  0  0  0  0
  152.2568  150.3309  145.9870 C   0  0  0  0  0  0  0  0  0  0  0  0
  152.7717  151.4649  146.6664 N   0  0  0  0  0  0  0  0  0  0  0  0
  154.0960  151.9305  146.5535 C   0  0  0  0  0  0  0  0  0  0  0  0
  154.3404  153.2931  146.3829 C   0  0  0  0  0  0  0  0  0  0  0  0
  155.5941  153.8348  146.2658 C   0  0  0  0  0  0  0  0  0  0  0  0
  156.6881  152.9746  146.3209 C   0  0  0  0  0  0  0  0  0  0  0  0
  158.2999  153.6451  146.1730 Cl  0  0  0  0  0  0  0  0  0  0  0  0
  156.4950  151.6326  146.4872 C   0  0  0  0  0  0  0  0  0  0  0  0
  157.8661  150.5523  146.5501 Cl  0  0  0  0  0  0  0  0  0  0  0  0
  155.1962  151.1180  146.6031 C   0  0  0  0  0  0  0  0  0  0  0  0
  153.0000  149.6859  145.1696 N   0  0  0  0  0  0  0  0  0  0  0  0
  152.6263  148.5304  144.4155 C   0  0  0  0  0  0  0  0  0  0  0  0
  1  2  1  0
  2  3  2  0
  3  4  2  0
  4  5  1  0
  5  6  2  0
  6  7  1  0
  7  8  1  0
  8  9  1  0
  9 10  1  0
 10 11  1  0
  7 12  2  0
 12 13  1  0
 13 14  1  0
 14 15  1  0
 15 16  2  0
 16 17  1  0
 17 18  2  0
 18 19  1  0
 18 20  1  0
 20 21  1  0
 20 22  2  0
 13 23  2  0
 23 24  1  0
 24  2  1  0
 24  6  1  0
 22 15  1  0
M  END
$$$$
