
     RDKit          3D

 40 44  0  0  0  0  0  0  0  0999 V2000
  119.4740  135.3307  112.6756 C   0  0  0  0  0  0  0  0  0  0  0  0
  118.5792  135.4047  113.7549 O   0  0  0  0  0  0  0  0  0  0  0  0
  119.0227  135.3025  115.0555 C   0  0  0  0  0  0  0  0  0  0  0  0
  120.2709  135.2187  115.2286 O   0  0  0  0  0  0  0  0  0  0  0  0
  118.1356  135.2878  116.2046 C   0  0  0  0  0  0  0  0  0  0  0  0
  118.6382  135.1105  117.4745 C   0  0  0  0  0  0  0  0  0  0  0  0
  117.7831  135.0972  118.5758 C   0  0  0  0  0  0  0  0  0  0  0  0
  116.4255  135.2595  118.4244 C   0  0  0  0  0  0  0  0  0  0  0  0
  115.5293  135.2411  119.6284 C   0  0  0  0  0  0  0  0  0  0  0  0
  115.2369  133.8665  120.0266 C   0  0  0  0  0  0  0  0  0  0  0  0
  115.5414  133.3922  121.2487 C   0  0  0  0  0  0  0  0  0  0  0  0
  115.2501  131.9975  121.6673 C   0  0  0  0  0  0  0  0  0  0  0  0
  114.2622  131.3316  120.7316 C   0  0  0  0  0  0  0  0  0  0  0  0
  114.1998  129.8736  121.1063 C   0  0  0  0  0  0  0  0  0  0  0  0
  112.8650  131.8991  120.8802 C   0  0  0  0  0  0  0  0  0  0  0  0
  114.6613  131.5306  119.2817 C   0  0  0  0  0  0  0  0  0  0  0  0
  114.5884  132.9989  119.0367 C   0  0  0  0  0  0  0  0  0  0  0  0
  114.0227  133.5142  118.0646 O   0  0  0  0  0  0  0  0  0  0  0  0
  116.1690  134.2314  122.2063 N   0  0  0  0  0  0  0  0  0  0  0  0
  116.4878  133.7487  123.4745 C   0  0  0  0  0  0  0  0  0  0  0  0
  117.5435  132.8895  123.6967 C   0  0  0  0  0  0  0  0  0  0  0  0
  117.8328  132.4295  124.9635 C   0  0  0  0  0  0  0  0  0  0  0  0
  117.0581  132.8273  126.0499 C   0  0  0  0  0  0  0  0  0  0  0  0
  117.3245  132.3818  127.3334 O   0  0  0  0  0  0  0  0  0  0  0  0
  117.4658  131.0171  127.6195 C   0  0  0  0  0  0  0  0  0  0  0  0
  116.0033  133.6809  125.8541 C   0  0  0  0  0  0  0  0  0  0  0  0
  115.7191  134.1380  124.5820 C   0  0  0  0  0  0  0  0  0  0  0  0
  114.6525  135.0023  124.3784 O   0  0  0  0  0  0  0  0  0  0  0  0
  114.0726  135.6555  125.4910 C   0  0  0  0  0  0  0  0  0  0  0  0
  116.4716  135.5713  121.8641 C   0  0  0  0  0  0  0  0  0  0  0  0
  116.1848  136.0717  120.6674 C   0  0  0  0  0  0  0  0  0  0  0  0
  116.5223  137.4686  120.3696 C   0  0  0  0  0  0  0  0  0  0  0  0
  116.5721  137.8387  119.1771 O   0  0  0  0  0  0  0  0  0  0  0  0
  116.7912  138.3887  121.4837 C   0  0  0  0  0  0  0  0  0  0  0  0
  116.4817  137.7895  122.8233 C   0  0  0  0  0  0  0  0  0  0  0  0
  114.9895  137.7048  123.0546 C   0  0  0  0  0  0  0  0  0  0  0  0
  117.0393  138.7112  123.8972 C   0  0  0  0  0  0  0  0  0  0  0  0
  117.1279  136.4225  122.8863 C   0  0  0  0  0  0  0  0  0  0  0  0
  115.9193  135.4356  117.1707 C   0  0  0  0  0  0  0  0  0  0  0  0
  116.7741  135.4496  116.0630 C   0  0  0  0  0  0  0  0  0  0  0  0
  1  2  1  0
  2  3  1  0
  3  4  2  0
  3  5  1  0
  5  6  2  0
  6  7  1  0
  7  8  2  0
  8  9  1  0
  9 10  1  0
 10 11  2  0
 11 12  1  0
 12 13  1  0
 13 14  1  0
 13 15  1  0
 13 16  1  0
 16 17  1  0
 17 18  2  0
 11 19  1  0
 19 20  1  0
 20 21  2  0
 21 22  1  0
 22 23  2  0
 23 24  1  0
 24 25  1  0
 23 26  1  0
 26 27  2  0
 27 28  1  0
 28 29  1  0
 19 30  1  0
 30 31  2  0
 31 32  1  0
 32 33  2  0
 32 34  1  0
 34 35  1  0
 35 36  1  0
 35 37  1  0
 35 38  1  0
  8 39  1  0
 39 40  2  0
 40  5  1  0
 31  9  1  0
 17 10  1  0
 27 20  1  0
 38 30  1  0
M  END
$$$$
