
     RDKit          3D

 21 22  0  0  0  0  0  0  0  0999 V2000
  163.1618  153.7085  168.8890 C   0  0  0  0  0  0  0  0  0  0  0  0
  164.5693  154.1211  168.9481 C   0  0  0  0  0  0  0  0  0  0  0  0
  165.1649  154.2113  167.8145 O   0  0  0  0  0  0  0  0  0  0  0  0
  165.3390  154.4309  170.1343 C   0  0  0  0  0  0  0  0  0  0  0  0
  164.8875  154.5540  171.3553 C   0  0  0  0  0  0  0  0  0  0  0  0
  165.0178  155.8263  172.1105 C   0  0  0  0  0  0  0  0  0  0  0  0
  164.2624  153.4619  171.9876 N   0  0  0  0  0  0  0  0  0  0  0  0
  163.6590  153.5407  173.2815 C   0  0  0  0  0  0  0  0  0  0  0  0
  163.4323  154.6672  173.7931 O   0  0  0  0  0  0  0  0  0  0  0  0
  163.3004  152.3007  174.0203 C   0  0  2  0  0  0  0  0  0  0  0  0
  163.5462  151.1983  173.1837 O   0  0  0  0  0  0  0  0  0  0  0  0
  161.8157  152.3627  174.3250 C   0  0  0  0  0  0  0  0  0  0  0  0
  161.0125  151.8223  173.1920 C   0  0  0  0  0  0  0  0  0  0  0  0
  161.4787  151.3807  171.9501 C   0  0  0  0  0  0  0  0  0  0  0  0
  160.4375  150.9664  171.2146 N   0  0  0  0  0  0  0  0  0  0  0  0
  159.3248  151.1193  171.9205 C   0  0  0  0  0  0  0  0  0  0  0  0
  158.0003  150.8590  171.6499 C   0  0  0  0  0  0  0  0  0  0  0  0
  156.9995  151.1041  172.5513 C   0  0  0  0  0  0  0  0  0  0  0  0
  157.3309  151.6322  173.7783 C   0  0  0  0  0  0  0  0  0  0  0  0
  158.6429  151.9008  174.0736 C   0  0  0  0  0  0  0  0  0  0  0  0
  159.6472  151.6507  173.1586 C   0  0  0  0  0  0  0  0  0  0  0  0
  1  2  1  0
  2  3  2  0
  2  4  1  0
  4  5  2  0
  5  6  1  0
  5  7  1  0
  7  8  1  0
  8  9  2  0
  8 10  1  0
 10 11  1  6
 10 12  1  0
 12 13  1  0
 13 14  2  0
 14 15  1  0
 15 16  1  0
 16 17  2  0
 17 18  1  0
 18 19  2  0
 19 20  1  0
 20 21  2  0
 21 13  1  0
 21 16  1  0
M  END
$$$$
