
     RDKit          3D

 28 31  0  0  0  0  0  0  0  0999 V2000
  127.1896  142.1448  148.7685 O   0  0  0  0  0  0  0  0  0  0  0  0
  128.1068  142.0502  149.6685 C   0  0  0  0  0  0  0  0  0  0  0  0
  128.7062  140.7395  149.8940 C   0  0  0  0  0  0  0  0  0  0  0  0
  128.0925  139.3856  148.9180 S   0  0  0  0  0  0  0  0  0  0  0  0
  128.0302  139.6671  147.1764 C   0  0  0  0  0  0  0  0  0  0  0  0
  128.6387  140.7097  146.6063 N   0  0  0  0  0  0  0  0  0  0  0  0
  128.5656  140.8719  145.2824 C   0  0  0  0  0  0  0  0  0  0  0  0
  127.8715  139.9747  144.5179 C   0  0  0  0  0  0  0  0  0  0  0  0
  127.2493  138.9197  145.0511 N   0  0  0  0  0  0  0  0  0  0  0  0
  126.5231  137.9252  144.5503 N   0  0  0  0  0  0  0  0  0  0  0  0
  126.1119  137.1006  145.5413 C   0  0  0  0  0  0  0  0  0  0  0  0
  125.2954  135.9076  145.3569 C   0  0  0  0  0  0  0  0  0  0  0  0
  124.7762  135.2033  146.4209 C   0  0  0  0  0  0  0  0  0  0  0  0
  124.0036  134.0648  146.2143 C   0  0  0  0  0  0  0  0  0  0  0  0
  123.7390  133.6145  144.9417 C   0  0  0  0  0  0  0  0  0  0  0  0
  124.2579  134.3170  143.8516 C   0  0  0  0  0  0  0  0  0  0  0  0
  125.0322  135.4585  144.0719 C   0  0  0  0  0  0  0  0  0  0  0  0
  126.6190  137.6275  146.7026 C   0  0  0  0  0  0  0  0  0  0  0  0
  127.3277  138.7652  146.3788 C   0  0  0  0  0  0  0  0  0  0  0  0
  128.4039  143.2637  150.3225 N   0  0  0  0  0  0  0  0  0  0  0  0
  127.8025  144.5184  149.9663 C   0  0  0  0  0  0  0  0  0  0  0  0
  126.8310  144.5584  148.9994 C   0  0  0  0  0  0  0  0  0  0  0  0
  126.2627  145.7765  148.6658 C   0  0  0  0  0  0  0  0  0  0  0  0
  125.2979  145.7621  147.6973 F   0  0  0  0  0  0  0  0  0  0  0  0
  126.6648  146.9377  149.2943 C   0  0  0  0  0  0  0  0  0  0  0  0
  127.6464  146.8777  150.2674 C   0  0  0  0  0  0  0  0  0  0  0  0
  128.2099  145.6769  150.5998 C   0  0  0  0  0  0  0  0  0  0  0  0
  129.1834  145.6493  151.5686 F   0  0  0  0  0  0  0  0  0  0  0  0
  1  2  2  0
  2  3  1  0
  3  4  1  0
  4  5  1  0
  5  6  2  0
  6  7  1  0
  7  8  2  0
  8  9  1  0
  9 10  1  0
 10 11  2  0
 11 12  1  0
 12 13  2  0
 13 14  1  0
 14 15  2  0
 15 16  1  0
 16 17  2  0
 11 18  1  0
 18 19  2  0
  2 20  1  0
 20 21  1  0
 21 22  2  0
 22 23  1  0
 23 24  1  0
 23 25  2  0
 25 26  1  0
 26 27  2  0
 27 28  1  0
 19  5  1  0
 27 21  1  0
 19  9  1  0
 17 12  1  0
M  END
$$$$
