
     RDKit          3D

 28 31  0  0  0  0  0  0  0  0999 V2000
  118.9030  149.2776  146.5627 O   0  0  0  0  0  0  0  0  0  0  0  0
  118.8742  150.5638  146.6342 C   0  0  0  0  0  0  0  0  0  0  0  0
  119.1304  151.3192  145.4128 C   0  0  0  0  0  0  0  0  0  0  0  0
  118.7731  150.5137  143.8682 S   0  0  0  0  0  0  0  0  0  0  0  0
  117.2558  149.6133  143.8104 C   0  0  0  0  0  0  0  0  0  0  0  0
  116.4085  149.5883  144.8419 N   0  0  0  0  0  0  0  0  0  0  0  0
  115.2701  148.8963  144.7425 C   0  0  0  0  0  0  0  0  0  0  0  0
  114.9765  148.2188  143.5910 C   0  0  0  0  0  0  0  0  0  0  0  0
  115.7985  148.2195  142.5380 N   0  0  0  0  0  0  0  0  0  0  0  0
  115.7573  147.6583  141.3336 N   0  0  0  0  0  0  0  0  0  0  0  0
  116.8692  147.9760  140.6307 C   0  0  0  0  0  0  0  0  0  0  0  0
  117.1599  147.5330  139.2731 C   0  0  0  0  0  0  0  0  0  0  0  0
  118.4414  147.5108  138.7682 C   0  0  0  0  0  0  0  0  0  0  0  0
  118.6883  147.0871  137.4662 C   0  0  0  0  0  0  0  0  0  0  0  0
  117.6581  146.6794  136.6508 C   0  0  0  0  0  0  0  0  0  0  0  0
  116.3526  146.6958  137.1471 C   0  0  0  0  0  0  0  0  0  0  0  0
  116.1174  147.1235  138.4559 C   0  0  0  0  0  0  0  0  0  0  0  0
  117.6208  148.7730  141.4574 C   0  0  0  0  0  0  0  0  0  0  0  0
  116.9373  148.9154  142.6465 C   0  0  0  0  0  0  0  0  0  0  0  0
  118.5913  151.0662  147.9212 N   0  0  0  0  0  0  0  0  0  0  0  0
  118.2685  150.2269  149.0412 C   0  0  0  0  0  0  0  0  0  0  0  0
  118.0067  148.8957  148.8420 C   0  0  0  0  0  0  0  0  0  0  0  0
  117.6947  148.1003  149.9320 C   0  0  0  0  0  0  0  0  0  0  0  0
  117.4437  146.7802  149.6804 F   0  0  0  0  0  0  0  0  0  0  0  0
  117.6460  148.6348  151.2037 C   0  0  0  0  0  0  0  0  0  0  0  0
  117.9131  149.9800  151.3851 C   0  0  0  0  0  0  0  0  0  0  0  0
  118.2218  150.7688  150.3114 C   0  0  0  0  0  0  0  0  0  0  0  0
  118.4804  152.1012  150.5227 F   0  0  0  0  0  0  0  0  0  0  0  0
  1  2  2  0
  2  3  1  0
  3  4  1  0
  4  5  1  0
  5  6  2  0
  6  7  1  0
  7  8  2  0
  8  9  1  0
  9 10  1  0
 10 11  2  0
 11 12  1  0
 12 13  2  0
 13 14  1  0
 14 15  2  0
 15 16  1  0
 16 17  2  0
 11 18  1  0
 18 19  2  0
  2 20  1  0
 20 21  1  0
 21 22  2  0
 22 23  1  0
 23 24  1  0
 23 25  2  0
 25 26  1  0
 26 27  2  0
 27 28  1  0
 19  5  1  0
 27 21  1  0
 19  9  1  0
 17 12  1  0
M  END
$$$$
