
     RDKit          3D

 18 19  0  0  0  0  0  0  0  0999 V2000
   48.3552   64.1816    7.4582 C   0  0  0  0  0  0  0  0  0  0  0  0
   48.1652   62.8633    8.1345 C   0  0  0  0  0  0  0  0  0  0  0  0
   48.8212   61.7526    7.6574 C   0  0  0  0  0  0  0  0  0  0  0  0
   48.6517   60.5348    8.2750 C   0  0  0  0  0  0  0  0  0  0  0  0
   49.3109   59.3918    7.7837 N   0  0  0  0  0  0  0  0  0  0  0  0
   50.2564   59.4624    6.6662 C   0  0  1  0  0  0  0  0  0  0  0  0
   51.6109   59.7577    7.2593 C   0  0  0  0  0  0  0  0  0  0  0  0
   50.2277   58.2037    5.8671 C   0  0  0  0  0  0  0  0  0  0  0  0
   48.8291   57.7134    5.5871 C   0  0  0  0  0  0  0  0  0  0  0  0
   48.0802   58.6683    4.9032 O   0  0  0  0  0  0  0  0  0  0  0  0
   47.8179   60.4705    9.3656 C   0  0  0  0  0  0  0  0  0  0  0  0
   47.5754   59.3051   10.0599 C   0  0  0  0  0  0  0  0  0  0  0  0
   46.7423   59.2154   11.1585 C   0  0  0  0  0  0  0  0  0  0  0  0
   46.5604   58.0362   11.7794 F   0  0  0  0  0  0  0  0  0  0  0  0
   46.1054   60.3447   11.6046 C   0  0  0  0  0  0  0  0  0  0  0  0
   46.3153   61.5304   10.9455 C   0  0  0  0  0  0  0  0  0  0  0  0
   47.1503   61.5944    9.8530 C   0  0  0  0  0  0  0  0  0  0  0  0
   47.3581   62.7676    9.2014 N   0  0  0  0  0  0  0  0  0  0  0  0
  1  2  1  0
  2  3  2  0
  3  4  1  0
  4  5  1  0
  5  6  1  0
  6  7  1  1
  6  8  1  0
  8  9  1  0
  9 10  1  0
  4 11  2  0
 11 12  1  0
 12 13  2  0
 13 14  1  0
 13 15  1  0
 15 16  2  0
 16 17  1  0
 17 18  2  0
 18  2  1  0
 17 11  1  0
M  END
$$$$
