
     RDKit          3D

 28 30  0  0  0  0  0  0  0  0999 V2000
    1.5733   -9.2906  -62.8806 C   0  0  0  0  0  0  0  0  0  0  0  0
    0.4350   -8.9240  -62.7525 C   0  0  0  0  0  0  0  0  0  0  0  0
   -0.9453   -8.4663  -62.6059 C   0  0  0  0  0  0  0  0  0  0  0  0
   -0.9545   -7.0338  -62.1814 C   0  0  2  0  0  0  0  0  0  0  0  0
    0.0276   -6.3431  -63.1736 C   0  0  0  0  0  0  0  0  0  0  0  0
   -0.5042   -6.7698  -60.9307 O   0  0  0  0  0  0  0  0  0  0  0  0
   -0.8128   -5.8280  -59.9976 C   0  0  0  0  0  0  0  0  0  0  0  0
    0.2423   -5.1985  -59.3324 C   0  0  0  0  0  0  0  0  0  0  0  0
    1.5229   -5.5525  -59.6502 O   0  0  0  0  0  0  0  0  0  0  0  0
    2.1289   -6.7054  -59.0520 C   0  0  0  0  0  0  0  0  0  0  0  0
   -0.0494   -4.2374  -58.3781 C   0  0  0  0  0  0  0  0  0  0  0  0
    1.0497   -3.6337  -57.7392 O   0  0  0  0  0  1  0  0  0  0  0  0
   -1.3340   -3.8926  -58.0727 C   0  0  0  0  0  0  0  0  0  0  0  0
   -2.3995   -4.5070  -58.7188 C   0  0  0  0  0  0  0  0  0  0  0  0
   -3.6234   -4.1962  -58.4338 O   0  0  0  0  0  0  0  0  0  0  0  0
   -4.7164   -4.7089  -58.9625 C   0  0  0  0  0  0  0  0  0  0  0  0
   -6.0329   -4.2585  -58.5427 C   0  0  0  0  0  0  0  0  0  0  0  0
   -6.2016   -2.9712  -58.0805 C   0  0  0  0  0  0  0  0  0  0  0  0
   -7.4383   -2.5005  -57.6639 C   0  0  0  0  0  0  0  0  0  0  0  0
   -8.5481   -3.3112  -57.6992 C   0  0  0  0  0  0  0  0  0  0  0  0
   -9.7769   -2.8467  -57.2857 O   0  0  0  0  0  0  0  0  0  0  0  0
  -10.1064   -1.4962  -57.5027 C   0  0  0  0  0  0  0  0  0  0  0  0
   -8.3961   -4.5972  -58.1579 C   0  0  0  0  0  0  0  0  0  0  0  0
   -7.1383   -5.0607  -58.5763 C   0  0  0  0  0  0  0  0  0  0  0  0
   -4.5003   -5.6762  -59.9144 C   0  0  0  0  0  0  0  0  0  0  0  0
   -3.2178   -6.0644  -60.2769 C   0  0  0  0  0  0  0  0  0  0  0  0
   -3.0586   -6.9448  -61.1317 O   0  0  0  0  0  0  0  0  0  0  0  0
   -2.1127   -5.4880  -59.6931 C   0  0  0  0  0  0  0  0  0  0  0  0
  1  2  3  0
  2  3  1  0
  3  4  1  0
  4  5  1  6
  4  6  1  0
  6  7  1  0
  7  8  2  0
  8  9  1  0
  9 10  1  0
  8 11  1  0
 11 12  1  0
 11 13  2  0
 13 14  1  0
 14 15  1  0
 15 16  1  0
 16 17  1  0
 17 18  2  0
 18 19  1  0
 19 20  2  0
 20 21  1  0
 21 22  1  0
 20 23  1  0
 23 24  2  0
 16 25  2  0
 25 26  1  0
 26 27  2  0
 26 28  1  0
 28  7  1  0
 28 14  2  0
 24 17  1  0
M  CHG  1  12  -1
M  END
$$$$
