
     RDKit          3D

 20 20  0  0  0  0  0  0  0  0999 V2000
  130.1640  135.7674  139.9389 N   0  0  0  0  0  0  0  0  0  0  0  0
  128.9617  136.2787  139.9895 C   0  0  0  0  0  0  0  0  0  0  0  0
  128.1929  136.2397  138.7641 C   0  0  0  0  0  0  0  0  0  0  0  0
  127.6005  137.2047  138.0960 C   0  0  0  0  0  0  0  0  0  0  0  0
  127.5418  138.6263  138.3978 C   0  0  0  0  0  0  0  0  0  0  0  0
  128.5427  139.4345  138.6762 C   0  0  0  0  0  0  0  0  0  0  0  0
  129.9743  139.1298  138.7582 C   0  0  0  0  0  0  0  0  0  0  0  0
  130.5698  139.1206  140.0267 N   0  0  0  0  0  0  0  0  0  0  0  0
  130.1873  139.6880  141.1372 C   0  0  0  0  0  0  0  0  0  0  0  0
  129.0640  140.4099  141.1582 N   0  0  0  0  0  0  0  0  0  0  0  0
  128.2321  141.1594  141.6456 C   0  0  0  0  0  0  0  0  0  0  0  0
  128.3236  141.7118  142.9877 C   0  0  0  0  0  0  0  0  0  0  0  0
  128.3164  141.0034  144.1183 C   0  0  0  0  0  0  0  0  0  0  0  0
  128.2102  139.5259  144.1824 C   0  0  0  0  0  0  0  0  0  0  0  0
  127.0603  139.1695  145.5218 Cl  0  0  0  0  0  0  0  0  0  0  0  0
  129.7611  138.8639  144.6469 Cl  0  0  0  0  0  0  0  0  0  0  0  0
  127.6700  139.0007  143.0224 O   0  0  0  0  0  0  0  0  0  0  0  0
  127.2558  137.6966  143.1017 C   0  0  0  0  0  0  0  0  0  0  0  0
  127.2632  137.1184  141.7064 C   0  0  0  0  0  0  0  0  0  0  0  0
  128.5981  136.7929  141.2592 N   0  0  0  0  0  0  0  0  0  0  0  0
  1  2  2  0
  2  3  1  0
  3  4  2  0
  4  5  1  0
  5  6  2  0
  6  7  1  0
  7  8  1  0
  8  9  2  0
  9 10  1  0
 10 11  2  0
 11 12  1  0
 12 13  2  0
 13 14  1  0
 14 15  1  0
 14 16  1  0
 14 17  1  0
 17 18  1  0
 18 19  1  0
 19 20  1  0
 20  2  1  0
M  END
$$$$
