
     RDKit          3D

 22 23  0  0  0  0  0  0  0  0999 V2000
   11.6524   40.5980   33.6581 C   0  0  0  0  0  0  0  0  0  0  0  0
   11.1391   41.9994   34.0317 C   0  0  0  0  0  0  0  0  0  0  0  0
   11.8924   43.0445   33.3206 C   0  0  0  0  0  0  0  0  0  0  0  0
   11.7572   43.1801   31.8656 C   0  0  1  0  0  0  0  0  0  0  0  0
   10.5565   44.0723   31.5213 C   0  0  0  0  0  0  0  0  0  0  0  0
   12.9723   43.6432   31.0966 C   0  0  1  0  0  0  0  0  0  0  0  0
   13.5562   44.7694   32.0004 C   0  0  0  0  0  0  0  0  0  0  0  0
   14.6620   45.5073   31.3330 C   0  0  0  0  0  0  0  0  0  0  0  0
   13.9833   42.7124   31.0351 O   0  0  0  0  0  0  0  0  0  0  0  0
   14.4744   41.9301   30.0632 C   0  0  0  0  0  0  0  0  0  0  0  0
   14.3205   42.3652   28.7235 C   0  0  0  0  0  0  0  0  0  0  0  0
   14.7787   41.6537   27.6538 C   0  0  0  0  0  0  0  0  0  0  0  0
   14.5936   42.1398   26.3667 C   0  0  0  0  0  0  0  0  0  0  0  0
   15.0775   41.3786   25.3225 C   0  0  0  0  0  0  0  0  0  0  0  0
   15.7152   40.1816   25.6255 C   0  0  0  0  0  0  0  0  0  0  0  0
   16.1516   39.4992   24.6504 O   0  0  0  0  0  0  0  0  0  0  0  0
   15.8576   39.7780   26.8726 O   0  0  0  0  0  0  0  0  0  0  0  0
   15.4207   40.4566   27.8903 C   0  0  0  0  0  0  0  0  0  0  0  0
   15.5860   40.0062   29.1824 C   0  0  0  0  0  0  0  0  0  0  0  0
   15.1147   40.7384   30.2779 C   0  0  0  0  0  0  0  0  0  0  0  0
   15.3059   40.2424   31.5504 O   0  0  0  0  0  0  0  0  0  0  0  0
   16.3769   39.3768   31.8739 C   0  0  0  0  0  0  0  0  0  0  0  0
  1  2  1  0
  2  3  1  0
  3  4  1  0
  4  5  1  1
  4  6  1  0
  6  7  1  1
  7  8  1  0
  6  9  1  0
  9 10  1  0
 10 11  2  0
 11 12  1  0
 12 13  1  0
 13 14  2  0
 14 15  1  0
 15 16  2  0
 15 17  1  0
 17 18  1  0
 18 19  1  0
 19 20  2  0
 20 21  1  0
 21 22  1  0
 20 10  1  0
 18 12  2  0
M  END
$$$$
