
     RDKit          3D

 22 23  0  0  0  0  0  0  0  0999 V2000
  124.1583  135.1598  147.3279 C   0  0  0  0  0  0  0  0  0  0  0  0
  124.2087  134.9561  145.8519 C   0  0  0  0  0  0  0  0  0  0  0  0
  123.0934  135.7187  145.1823 C   0  0  0  0  0  0  0  0  0  0  0  0
  125.4594  135.3300  145.2564 N   0  0  0  0  0  0  0  0  0  0  0  0
  126.6168  134.9048  145.9700 C   0  0  0  0  0  0  0  0  0  0  0  0
  125.5060  136.6827  144.8033 C   0  0  0  0  0  0  0  0  0  0  0  0
  126.9060  136.9207  144.2241 C   0  0  0  0  0  0  0  0  0  0  0  0
  126.9887  138.4080  143.9418 C   0  0  0  0  0  0  0  0  0  0  0  0
  127.2965  139.0657  145.1780 N   0  0  0  0  0  0  0  0  0  0  0  0
  127.4460  140.5011  145.0465 C   0  0  0  0  0  0  0  0  0  0  0  0
  127.6514  141.0548  146.4056 C   0  0  0  0  0  0  0  0  0  0  0  0
  127.9605  140.3061  147.5250 C   0  0  0  0  0  0  0  0  0  0  0  0
  128.0560  141.2409  148.5527 C   0  0  0  0  0  0  0  0  0  0  0  0
  127.8052  142.4868  148.0178 C   0  0  0  0  0  0  0  0  0  0  0  0
  127.7910  143.7755  148.6999 C   0  0  0  0  0  0  0  0  0  0  0  0
  127.6005  144.9482  148.0022 C   0  0  0  0  0  0  0  0  0  0  0  0
  127.6020  146.1273  148.7299 C   0  0  0  0  0  0  0  0  0  0  0  0
  127.7814  146.1727  150.0863 C   0  0  0  0  0  0  0  0  0  0  0  0
  127.9728  144.9827  150.7804 C   0  0  0  0  0  0  0  0  0  0  0  0
  128.2077  144.9873  152.5211 Cl  0  0  0  0  0  0  0  0  0  0  0  0
  127.9731  143.8040  150.0658 C   0  0  0  0  0  0  0  0  0  0  0  0
  127.5720  142.3225  146.7467 O   0  0  0  0  0  0  0  0  0  0  0  0
  1  2  1  0
  2  3  1  0
  2  4  1  0
  4  5  1  0
  4  6  1  0
  6  7  1  0
  7  8  1  0
  8  9  1  0
  9 10  1  0
 10 11  1  0
 11 12  2  0
 12 13  1  0
 13 14  2  0
 14 15  1  0
 15 16  2  0
 16 17  1  0
 17 18  2  0
 18 19  1  0
 19 20  1  0
 19 21  2  0
 14 22  1  0
 22 11  1  0
 21 15  1  0
M  END
$$$$
