
     RDKit          3D

 18 19  0  0  0  0  0  0  0  0999 V2000
  151.4074  146.6843  145.1529 C   0  0  0  0  0  0  0  0  0  0  0  0
  150.0393  147.1279  145.6196 C   0  0  0  0  0  0  0  0  0  0  0  0
  149.7176  148.4684  145.1724 N   0  0  0  0  0  0  0  0  0  0  0  0
  150.5587  149.3810  145.9483 C   0  0  0  0  0  0  0  0  0  0  0  0
  149.9518  150.7284  146.0328 C   0  0  0  0  0  0  0  0  0  0  0  0
  148.6706  151.0350  145.6639 C   0  0  0  0  0  0  0  0  0  0  0  0
  148.1665  152.3109  145.7686 C   0  0  0  0  0  0  0  0  0  0  0  0
  148.9576  153.3220  146.2563 C   0  0  0  0  0  0  0  0  0  0  0  0
  150.2571  153.0445  146.6377 C   0  0  0  0  0  0  0  0  0  0  0  0
  151.0488  154.0649  147.1276 O   0  0  0  0  0  0  0  0  0  0  0  0
  150.7443  151.7457  146.5224 C   0  0  0  0  0  0  0  0  0  0  0  0
  152.4060  151.4701  147.0287 Cl  0  0  0  0  0  0  0  0  0  0  0  0
  149.0645  146.1450  145.0967 C   0  0  0  0  0  0  0  0  0  0  0  0
  147.8497  145.9522  145.7141 C   0  0  0  0  0  0  0  0  0  0  0  0
  146.9457  145.0350  145.2234 C   0  0  0  0  0  0  0  0  0  0  0  0
  147.2260  144.2773  144.0960 C   0  0  0  0  0  0  0  0  0  0  0  0
  148.4395  144.4675  143.4763 C   0  0  0  0  0  0  0  0  0  0  0  0
  149.3353  145.3919  143.9818 C   0  0  0  0  0  0  0  0  0  0  0  0
  1  2  1  0
  2  3  1  0
  3  4  1  0
  4  5  1  0
  5  6  2  0
  6  7  1  0
  7  8  2  0
  8  9  1  0
  9 10  1  0
  9 11  2  0
 11 12  1  0
  2 13  1  0
 13 14  2  0
 14 15  1  0
 15 16  2  0
 16 17  1  0
 17 18  2  0
 11  5  1  0
 18 13  1  0
M  END
$$$$
