
     RDKit          3D

 20 21  0  0  0  0  0  0  0  0999 V2000
   -3.9842   -6.1431  -58.7835 C   0  0  0  0  0  0  0  0  0  0  0  0
   -2.6916   -5.6603  -59.0871 O   0  0  0  0  0  0  0  0  0  0  0  0
   -2.0026   -6.2108  -60.1662 C   0  0  0  0  0  0  0  0  0  0  0  0
   -2.5432   -7.2586  -60.8830 C   0  0  0  0  0  0  0  0  0  0  0  0
   -1.8877   -7.8255  -61.9553 C   0  0  0  0  0  0  0  0  0  0  0  0
   -2.6518   -9.1777  -62.8323 S   0  0  0  0  0  0  0  0  0  0  0  0
   -1.4602  -10.3408  -63.4807 C   0  0  0  0  0  0  0  0  0  0  0  0
   -0.6562   -7.3014  -62.2908 C   0  0  0  0  0  0  0  0  0  0  0  0
   -0.1050   -6.2424  -61.5698 C   0  0  0  0  0  0  0  0  0  0  0  0
   -0.7691   -5.6830  -60.4993 C   0  0  0  0  0  0  0  0  0  0  0  0
   -0.1595   -4.5832  -59.7773 C   0  0  0  0  0  0  0  0  0  0  0  0
   -0.0571   -3.4426  -60.3303 O   0  0  0  0  0  0  0  0  0  0  0  0
    0.3199   -4.7688  -58.4682 N   0  0  0  0  0  0  0  0  0  0  0  0
    1.1731   -3.7778  -57.8719 C   0  0  0  0  0  0  0  0  0  0  0  0
    1.0113   -3.7108  -56.3795 C   0  0  0  0  0  0  0  0  0  0  0  0
    1.0060   -5.0441  -55.7030 C   0  0  0  0  0  0  0  0  0  0  0  0
    2.1878   -5.1259  -54.7357 C   0  0  0  0  0  0  0  0  0  0  0  0
   -0.1946   -5.1931  -54.9725 O   0  0  0  0  0  0  0  0  0  0  0  0
    1.0519   -6.1670  -56.6907 C   0  0  0  0  0  0  0  0  0  0  0  0
   -0.0390   -5.9455  -57.7223 C   0  0  0  0  0  0  0  0  0  0  0  0
  1  2  1  0
  2  3  1  0
  3  4  2  0
  4  5  1  0
  5  6  1  0
  6  7  1  0
  5  8  2  0
  8  9  1  0
  9 10  2  0
 10 11  1  0
 11 12  2  0
 11 13  1  0
 13 14  1  0
 14 15  1  0
 15 16  1  0
 16 17  1  0
 16 18  1  0
 16 19  1  0
 19 20  1  0
 10  3  1  0
 20 13  1  0
M  END
$$$$
