
     RDKit          3D

 25 27  0  0  0  0  0  0  0  0999 V2000
  158.0639  150.8874  146.6372 C   0  0  0  0  0  0  0  0  0  0  0  0
  157.2118  152.4400  146.7246 S   0  0  0  0  0  6  0  0  0  0  0  0
  157.8030  153.4647  145.8001 O   0  0  0  0  0  0  0  0  0  0  0  0
  157.2953  152.9532  148.1192 O   0  0  0  0  0  0  0  0  0  0  0  0
  155.5170  152.2281  146.3281 C   0  0  0  0  0  0  0  0  0  0  0  0
  154.7440  153.3510  146.1254 C   0  0  0  0  0  0  0  0  0  0  0  0
  153.4224  153.2183  145.8157 C   0  0  0  0  0  0  0  0  0  0  0  0
  152.8921  151.9391  145.7134 C   0  0  0  0  0  0  0  0  0  0  0  0
  153.6641  150.8187  145.9159 C   0  0  0  0  0  0  0  0  0  0  0  0
  153.0391  149.5137  145.7917 C   0  0  0  0  0  0  0  0  0  0  0  0
  153.7715  148.4833  145.9915 O   0  0  0  0  0  0  0  0  0  0  0  0
  151.6956  149.2613  145.4707 N   0  0  0  0  0  0  0  0  0  0  0  0
  151.1965  147.9064  145.3111 C   0  0  0  0  0  0  0  0  0  0  0  0
  150.0482  147.5225  144.7833 N   0  0  0  0  0  0  0  0  0  0  0  0
  149.7625  146.2597  144.7206 C   0  0  0  0  0  0  0  0  0  0  0  0
  148.4800  145.7832  144.1338 C   0  0  0  0  0  0  0  0  0  0  0  0
  147.7956  146.5363  143.2073 C   0  0  0  0  0  0  0  0  0  0  0  0
  146.6085  146.1216  142.6482 C   0  0  0  0  0  0  0  0  0  0  0  0
  146.0704  144.9126  143.0166 C   0  0  0  0  0  0  0  0  0  0  0  0
  144.8575  144.4886  142.4455 O   0  0  0  0  0  0  0  0  0  0  0  0
  146.7366  144.1411  143.9419 C   0  0  0  0  0  0  0  0  0  0  0  0
  147.9369  144.5762  144.4976 C   0  0  0  0  0  0  0  0  0  0  0  0
  150.6863  145.3745  145.2154 C   0  0  0  0  0  0  0  0  0  0  0  0
  151.9234  146.4255  145.7466 S   0  0  0  0  0  0  0  0  0  0  0  0
  155.0027  150.9577  146.2295 C   0  0  0  0  0  0  0  0  0  0  0  0
  1  2  1  0
  2  3  2  0
  2  4  2  0
  2  5  1  0
  5  6  2  0
  6  7  1  0
  7  8  2  0
  8  9  1  0
  9 10  1  0
 10 11  2  0
 10 12  1  0
 12 13  1  0
 13 14  2  0
 14 15  1  0
 15 16  1  0
 16 17  2  0
 17 18  1  0
 18 19  2  0
 19 20  1  0
 19 21  1  0
 21 22  2  0
 15 23  2  0
 23 24  1  0
  9 25  2  0
 25  5  1  0
 24 13  1  0
 22 16  1  0
M  END
$$$$
