
     RDKit          3D

 25 27  0  0  0  0  0  0  0  0999 V2000
  151.0646  154.8102  151.2982 C   0  0  0  0  0  0  0  0  0  0  0  0
  152.3421  155.0275  150.0878 S   0  0  0  0  0  6  0  0  0  0  0  0
  153.6993  154.6769  150.6257 O   0  0  0  0  0  0  0  0  0  0  0  0
  152.3549  156.4519  149.6566 O   0  0  0  0  0  0  0  0  0  0  0  0
  152.0183  154.0392  148.6760 C   0  0  0  0  0  0  0  0  0  0  0  0
  152.6896  154.3238  147.5065 C   0  0  0  0  0  0  0  0  0  0  0  0
  152.4590  153.5728  146.3916 C   0  0  0  0  0  0  0  0  0  0  0  0
  151.5432  152.5322  146.4727 C   0  0  0  0  0  0  0  0  0  0  0  0
  150.8735  152.2486  147.6404 C   0  0  0  0  0  0  0  0  0  0  0  0
  149.9302  151.1444  147.6485 C   0  0  0  0  0  0  0  0  0  0  0  0
  149.3359  150.8795  148.7507 O   0  0  0  0  0  0  0  0  0  0  0  0
  149.5976  150.3255  146.5575 N   0  0  0  0  0  0  0  0  0  0  0  0
  148.6326  149.2472  146.6859 C   0  0  0  0  0  0  0  0  0  0  0  0
  148.1949  148.4345  145.7414 N   0  0  0  0  0  0  0  0  0  0  0  0
  147.3248  147.5199  146.0359 C   0  0  0  0  0  0  0  0  0  0  0  0
  146.8047  146.5830  145.0025 C   0  0  0  0  0  0  0  0  0  0  0  0
  147.3203  146.5699  143.7267 C   0  0  0  0  0  0  0  0  0  0  0  0
  146.8597  145.7155  142.7512 C   0  0  0  0  0  0  0  0  0  0  0  0
  145.8470  144.8347  143.0434 C   0  0  0  0  0  0  0  0  0  0  0  0
  145.3761  143.9615  142.0470 O   0  0  0  0  0  0  0  0  0  0  0  0
  145.3148  144.8288  144.3130 C   0  0  0  0  0  0  0  0  0  0  0  0
  145.7930  145.7004  145.2879 C   0  0  0  0  0  0  0  0  0  0  0  0
  146.8984  147.4452  147.3377 C   0  0  0  0  0  0  0  0  0  0  0  0
  147.7856  148.7098  148.0661 S   0  0  0  0  0  0  0  0  0  0  0  0
  151.1102  153.0121  148.7676 C   0  0  0  0  0  0  0  0  0  0  0  0
  1  2  1  0
  2  3  2  0
  2  4  2  0
  2  5  1  0
  5  6  2  0
  6  7  1  0
  7  8  2  0
  8  9  1  0
  9 10  1  0
 10 11  2  0
 10 12  1  0
 12 13  1  0
 13 14  2  0
 14 15  1  0
 15 16  1  0
 16 17  2  0
 17 18  1  0
 18 19  2  0
 19 20  1  0
 19 21  1  0
 21 22  2  0
 15 23  2  0
 23 24  1  0
  9 25  2  0
 25  5  1  0
 24 13  1  0
 22 16  1  0
M  END
$$$$
