
     RDKit          3D

 22 23  0  0  0  0  0  0  0  0999 V2000
  114.3132  145.9668  142.2637 C   0  0  0  0  0  0  0  0  0  0  0  0
  114.7317  147.1265  143.1599 C   0  0  0  0  0  0  0  0  0  0  0  0
  114.0423  148.4149  142.7643 C   0  0  1  0  0  0  0  0  0  0  0  0
  113.6381  149.0767  144.0789 C   0  0  0  0  0  0  0  0  0  0  0  0
  112.1432  149.0794  144.2607 C   0  0  0  0  0  0  0  0  0  0  0  0
  111.8797  148.4493  145.4780 O   0  0  0  0  0  0  0  0  0  0  0  0
  114.8721  149.2373  141.9755 N   0  0  0  0  0  4  0  0  0  0  0  0
  116.2640  148.8958  141.9403 C   0  0  1  0  0  0  0  0  0  0  0  0
  116.7546  148.4713  140.6281 C   0  0  0  0  0  0  0  0  0  0  0  0
  117.9133  147.7471  140.4864 C   0  0  0  0  0  0  0  0  0  0  0  0
  118.4113  147.3272  139.2737 C   0  0  0  0  0  0  0  0  0  0  0  0
  117.6906  147.6631  138.1465 C   0  0  0  0  0  0  0  0  0  0  0  0
  118.1778  147.2499  136.9332 F   0  0  0  0  0  0  0  0  0  0  0  0
  116.5249  148.3884  138.2542 C   0  0  0  0  0  0  0  0  0  0  0  0
  116.0550  148.7928  139.4864 C   0  0  0  0  0  0  0  0  0  0  0  0
  117.1517  149.9652  142.4233 C   0  0  0  0  0  0  0  0  0  0  0  0
  117.2973  151.0908  141.6290 C   0  0  0  0  0  0  0  0  0  0  0  0
  118.1004  152.1603  141.9752 C   0  0  0  0  0  0  0  0  0  0  0  0
  118.7797  152.1009  143.1545 C   0  0  0  0  0  0  0  0  0  0  0  0
  119.8047  153.4360  143.6237 Cl  0  0  0  0  0  0  0  0  0  0  0  0
  118.6417  150.9735  143.9630 C   0  0  0  0  0  0  0  0  0  0  0  0
  117.8404  149.9086  143.6158 C   0  0  0  0  0  0  0  0  0  0  0  0
  1  2  1  0
  3  2  1  1
  3  4  1  0
  4  5  1  0
  5  6  1  0
  3  7  1  0
  8  7  1  6
  8  9  1  0
  9 10  2  0
 10 11  1  0
 11 12  2  0
 12 13  1  0
 12 14  1  0
 14 15  2  0
  8 16  1  0
 16 17  2  0
 17 18  1  0
 18 19  2  0
 19 20  1  0
 19 21  1  0
 21 22  2  0
 15  9  1  0
 22 16  1  0
M  CHG  1   7   1
M  END
$$$$
