
     RDKit          3D

 22 23  0  0  0  0  0  0  0  0999 V2000
  119.1021  152.7997  145.0654 C   0  0  0  0  0  0  0  0  0  0  0  0
  117.7709  152.0581  145.0955 C   0  0  0  0  0  0  0  0  0  0  0  0
  117.9657  150.5582  145.0293 C   0  0  1  0  0  0  0  0  0  0  0  0
  117.8225  150.0686  146.4679 C   0  0  0  0  0  0  0  0  0  0  0  0
  118.7517  148.9193  146.7565 C   0  0  0  0  0  0  0  0  0  0  0  0
  117.9539  147.8275  147.1025 O   0  0  0  0  0  0  0  0  0  0  0  0
  117.0473  149.9445  144.1534 N   0  0  0  0  0  4  0  0  0  0  0  0
  117.4107  149.9099  142.7671 C   0  0  1  0  0  0  0  0  0  0  0  0
  116.9657  148.7138  142.0500 C   0  0  0  0  0  0  0  0  0  0  0  0
  117.8346  147.9416  141.3180 C   0  0  0  0  0  0  0  0  0  0  0  0
  117.4606  146.8101  140.6289 C   0  0  0  0  0  0  0  0  0  0  0  0
  116.1312  146.4468  140.6891 C   0  0  0  0  0  0  0  0  0  0  0  0
  115.7478  145.3212  140.0062 F   0  0  0  0  0  0  0  0  0  0  0  0
  115.2344  147.1994  141.4142 C   0  0  0  0  0  0  0  0  0  0  0  0
  115.6445  148.3280  142.0929 C   0  0  0  0  0  0  0  0  0  0  0  0
  116.9561  151.0823  142.0031 C   0  0  0  0  0  0  0  0  0  0  0  0
  117.6941  151.4537  140.8912 C   0  0  0  0  0  0  0  0  0  0  0  0
  117.3671  152.5339  140.0944 C   0  0  0  0  0  0  0  0  0  0  0  0
  116.2657  153.2659  140.4215 C   0  0  0  0  0  0  0  0  0  0  0  0
  115.8229  154.6389  139.4356 Cl  0  0  0  0  0  0  0  0  0  0  0  0
  115.5144  152.9025  141.5383 C   0  0  0  0  0  0  0  0  0  0  0  0
  115.8424  151.8251  142.3310 C   0  0  0  0  0  0  0  0  0  0  0  0
  1  2  1  0
  3  2  1  1
  3  4  1  0
  4  5  1  0
  5  6  1  0
  3  7  1  0
  8  7  1  1
  8  9  1  0
  9 10  2  0
 10 11  1  0
 11 12  2  0
 12 13  1  0
 12 14  1  0
 14 15  2  0
  8 16  1  0
 16 17  2  0
 17 18  1  0
 18 19  2  0
 19 20  1  0
 19 21  1  0
 21 22  2  0
 15  9  1  0
 22 16  1  0
M  CHG  1   7   1
M  END
$$$$
