
     RDKit          3D

 10 10  0  0  0  0  0  0  0  0999 V2000
    0.6083   28.7284   -9.4201 O   0  0  0  0  0  0  0  0  0  0  0  0
    0.6658   28.7164   -8.0495 C   0  0  0  0  0  0  0  0  0  0  0  0
    0.6651   29.8296   -7.3995 C   0  0  0  0  0  0  0  0  0  0  0  0
    1.8115   30.3349   -7.0546 C   0  0  0  0  0  0  0  0  0  0  0  0
    2.5626   29.7554   -5.9045 C   0  0  0  0  0  0  0  0  0  0  0  0
    3.8110   29.0947   -6.3449 C   0  0  0  0  0  0  0  0  0  0  0  0
    3.9507   27.7982   -6.5327 C   0  0  0  0  0  0  0  0  0  0  0  0
    2.8368   26.8458   -6.3144 C   0  0  0  0  0  0  0  0  0  0  0  0
    2.0196   26.8350   -7.5016 N   0  0  0  0  0  0  0  0  0  0  0  0
    0.7284   27.4393   -7.3187 C   0  0  0  0  0  0  0  0  0  0  0  0
  1  2  1  0
  2  3  2  0
  3  4  2  0
  4  5  1  0
  5  6  1  0
  6  7  2  0
  7  8  1  0
  8  9  1  0
  9 10  1  0
 10  2  1  0
M  END
$$$$
