
     RDKit          3D

 28 30  0  0  0  0  0  0  0  0999 V2000
  168.8791  143.0331  151.6967 C   0  0  0  0  0  0  0  0  0  0  0  0
  168.9694  143.7164  152.6673 C   0  0  0  0  0  0  0  0  0  0  0  0
  169.1073  144.5652  153.8845 C   0  0  0  0  0  0  0  0  0  0  0  0
  169.5021  143.7403  155.0656 C   0  0  2  0  0  0  0  0  0  0  0  0
  170.7398  142.9246  154.5347 C   0  0  0  0  0  0  0  0  0  0  0  0
  168.5109  142.8190  155.4209 O   0  0  0  0  0  0  0  0  0  0  0  0
  168.3504  142.1831  156.6215 C   0  0  0  0  0  0  0  0  0  0  0  0
  167.8080  142.9308  157.6845 C   0  0  0  0  0  0  0  0  0  0  0  0
  167.4513  144.2639  157.5133 O   0  0  0  0  0  0  0  0  0  0  0  0
  168.4455  145.2510  157.7509 C   0  0  0  0  0  0  0  0  0  0  0  0
  167.6389  142.3152  158.8950 C   0  0  0  0  0  0  0  0  0  0  0  0
  167.0969  143.0871  159.9295 O   0  0  0  0  0  1  0  0  0  0  0  0
  167.9900  141.0015  159.0670 C   0  0  0  0  0  0  0  0  0  0  0  0
  168.5265  140.2420  158.0385 C   0  0  0  0  0  0  0  0  0  0  0  0
  168.8612  138.9893  158.2105 O   0  0  0  0  0  0  0  0  0  0  0  0
  169.3761  138.2263  157.2651 C   0  0  0  0  0  0  0  0  0  0  0  0
  169.7276  136.8385  157.5227 C   0  0  0  0  0  0  0  0  0  0  0  0
  170.3505  136.0232  156.6117 C   0  0  0  0  0  0  0  0  0  0  0  0
  170.6399  134.7280  156.9736 C   0  0  0  0  0  0  0  0  0  0  0  0
  170.3241  134.2275  158.2181 C   0  0  0  0  0  0  0  0  0  0  0  0
  170.6425  132.9235  158.5126 O   0  0  0  0  0  0  0  0  0  0  0  0
  170.4355  131.8376  157.6625 C   0  0  0  0  0  0  0  0  0  0  0  0
  169.6969  135.0520  159.1320 C   0  0  0  0  0  0  0  0  0  0  0  0
  169.4141  136.3321  158.7662 C   0  0  0  0  0  0  0  0  0  0  0  0
  169.5892  138.7427  156.0117 C   0  0  0  0  0  0  0  0  0  0  0  0
  169.2359  140.0839  155.8110 C   0  0  0  0  0  0  0  0  0  0  0  0
  169.4192  140.5796  154.6841 O   0  0  0  0  0  0  0  0  0  0  0  0
  168.6991  140.8723  156.8002 C   0  0  0  0  0  0  0  0  0  0  0  0
  1  2  3  0
  2  3  1  0
  3  4  1  0
  4  5  1  6
  4  6  1  0
  6  7  1  0
  7  8  2  0
  8  9  1  0
  9 10  1  0
  8 11  1  0
 11 12  1  0
 11 13  2  0
 13 14  1  0
 14 15  1  0
 15 16  1  0
 16 17  1  0
 17 18  2  0
 18 19  1  0
 19 20  2  0
 20 21  1  0
 21 22  1  0
 20 23  1  0
 23 24  2  0
 16 25  2  0
 25 26  1  0
 26 27  2  0
 26 28  1  0
 28  7  1  0
 28 14  2  0
 24 17  1  0
M  CHG  1  12  -1
M  END
$$$$
