
     RDKit          3D

 22 23  0  0  0  0  0  0  0  0999 V2000
   19.9570  -19.5476  -20.9802 C   0  0  0  0  0  0  0  0  0  0  0  0
   20.6772  -20.7548  -20.4303 C   0  0  0  0  0  0  0  0  0  0  0  0
   20.0306  -21.9547  -20.9248 N   0  0  0  0  0  0  0  0  0  0  0  0
   18.6439  -22.0042  -20.5174 C   0  0  0  0  0  0  0  0  0  0  0  0
   18.3672  -23.2725  -19.7661 C   0  0  0  0  0  0  0  0  0  0  0  0
   19.4558  -24.0460  -19.4374 C   0  0  0  0  0  0  0  0  0  0  0  0
   19.3309  -25.2226  -18.7333 C   0  0  0  0  0  0  0  0  0  0  0  0
   18.0655  -25.6094  -18.3611 C   0  0  0  0  0  0  0  0  0  0  0  0
   16.9535  -24.8135  -18.7003 C   0  0  0  0  0  0  0  0  0  0  0  0
   17.0594  -23.6420  -19.4002 C   0  0  0  0  0  0  0  0  0  0  0  0
   15.9592  -22.8531  -19.7241 N   0  0  0  0  0  0  0  0  0  0  0  0
   15.3078  -22.5759  -20.7430 C   0  0  0  0  0  0  0  0  0  0  0  0
   14.2045  -21.6879  -20.6683 O   0  0  0  0  0  0  0  0  0  0  0  0
   15.5850  -23.0972  -22.0286 N   0  0  0  0  0  0  0  0  0  0  0  0
   16.0280  -24.4515  -22.2980 C   0  0  0  0  0  0  0  0  0  0  0  0
   16.1995  -24.6566  -23.7475 C   0  0  0  0  0  0  0  0  0  0  0  0
   16.6953  -23.8159  -24.6095 C   0  0  0  0  0  0  0  0  0  0  0  0
   16.7325  -24.4408  -26.2936 Cl  0  0  0  0  0  0  0  0  0  0  0  0
   17.1930  -22.4692  -24.4399 C   0  0  0  0  0  0  0  0  0  0  0  0
   18.2293  -22.0373  -23.7593 C   0  0  0  0  0  0  0  0  0  0  0  0
   19.1869  -22.8327  -22.9700 C   0  0  0  0  0  0  0  0  0  0  0  0
   20.1201  -21.9489  -22.2993 N   0  0  0  0  0  0  0  0  0  0  0  0
  1  2  1  0
  2  3  1  0
  3  4  1  0
  4  5  1  0
  5  6  2  0
  6  7  1  0
  7  8  2  0
  8  9  1  0
  9 10  2  0
 10 11  1  0
 11 12  2  0
 12 13  1  0
 12 14  1  0
 14 15  1  0
 15 16  1  0
 16 17  2  0
 17 18  1  0
 17 19  1  0
 19 20  2  0
 20 21  1  0
 21 22  1  0
 22  3  1  0
 10  5  1  0
M  END
$$$$
