
     RDKit          3D

 22 23  0  0  0  0  0  0  0  0999 V2000
   -4.6683   -7.1179  -57.3877 C   0  0  0  0  0  0  0  0  0  0  0  0
   -4.9282   -5.8033  -58.0827 C   0  0  0  0  0  0  0  0  0  0  0  0
   -3.9295   -5.6115  -59.1162 N   0  0  0  0  0  0  0  0  0  0  0  0
   -2.5999   -5.8702  -58.6095 C   0  0  0  0  0  0  0  0  0  0  0  0
   -1.7198   -4.6746  -58.8233 C   0  0  0  0  0  0  0  0  0  0  0  0
   -2.3344   -3.5258  -59.2636 C   0  0  0  0  0  0  0  0  0  0  0  0
   -1.6355   -2.3592  -59.4790 C   0  0  0  0  0  0  0  0  0  0  0  0
   -0.2825   -2.3748  -59.2371 C   0  0  0  0  0  0  0  0  0  0  0  0
    0.3425   -3.5543  -58.7862 C   0  0  0  0  0  0  0  0  0  0  0  0
   -0.3367   -4.7226  -58.5678 C   0  0  0  0  0  0  0  0  0  0  0  0
    0.2827   -5.8828  -58.1120 N   0  0  0  0  0  0  0  0  0  0  0  0
    0.6034   -6.9862  -58.5803 C   0  0  0  0  0  0  0  0  0  0  0  0
    1.2448   -7.9520  -57.7634 O   0  0  0  0  0  0  0  0  0  0  0  0
    0.3746   -7.3764  -59.9207 N   0  0  0  0  0  0  0  0  0  0  0  0
    0.4892   -6.5017  -61.0716 C   0  0  0  0  0  0  0  0  0  0  0  0
    0.2017   -7.2448  -62.3116 C   0  0  0  0  0  0  0  0  0  0  0  0
   -0.7173   -8.1491  -62.4939 C   0  0  0  0  0  0  0  0  0  0  0  0
   -0.7474   -8.8283  -64.1569 Cl  0  0  0  0  0  0  0  0  0  0  0  0
   -1.6906   -8.7068  -61.5819 C   0  0  0  0  0  0  0  0  0  0  0  0
   -2.6983   -8.1263  -60.9723 C   0  0  0  0  0  0  0  0  0  0  0  0
   -3.1170   -6.7160  -61.0619 C   0  0  0  0  0  0  0  0  0  0  0  0
   -4.2181   -6.4744  -60.1502 N   0  0  0  0  0  0  0  0  0  0  0  0
  1  2  1  0
  2  3  1  0
  3  4  1  0
  4  5  1  0
  5  6  2  0
  6  7  1  0
  7  8  2  0
  8  9  1  0
  9 10  2  0
 10 11  1  0
 11 12  2  0
 12 13  1  0
 12 14  1  0
 14 15  1  0
 15 16  1  0
 16 17  2  0
 17 18  1  0
 17 19  1  0
 19 20  2  0
 20 21  1  0
 21 22  1  0
 22  3  1  0
 10  5  1  0
M  END
$$$$
