
     RDKit          3D

 17 17  0  0  0  0  0  0  0  0999 V2000
   -2.9478   24.1305   12.7202 C   0  0  0  0  0  0  0  0  0  0  0  0
   -4.4218   23.9509   12.4414 C   0  0  0  0  0  0  0  0  0  0  0  0
   -4.7280   23.7545   10.7132 S   0  0  0  0  0  6  0  0  0  0  0  0
   -6.1631   23.2530   10.5201 O   0  0  0  0  0  0  0  0  0  0  0  0
   -3.8684   22.5791   10.2556 O   0  0  0  0  0  0  0  0  0  0  0  0
   -4.4107   25.0997    9.7500 N   0  0  0  0  0  0  0  0  0  0  0  0
   -5.1947   26.2626    9.6156 C   0  0  0  0  0  0  0  0  0  0  0  0
   -6.5571   26.3068    9.4484 C   0  0  0  0  0  0  0  0  0  0  0  0
   -7.2690   27.5001    9.3418 C   0  0  0  0  0  0  0  0  0  0  0  0
   -8.7218   27.4947    9.1638 C   0  0  0  0  0  0  0  0  0  0  0  0
   -9.2927   28.6053    9.0439 O   0  0  0  0  0  0  0  0  0  0  0  0
   -9.4761   26.3543    9.1226 O   0  0  0  0  0  0  0  0  0  0  0  0
  -10.8864   26.3268    8.9940 C   0  0  0  0  0  0  0  0  0  0  0  0
   -6.5672   28.6807    9.4086 C   0  0  0  0  0  0  0  0  0  0  0  0
   -5.2147   28.6359    9.5752 C   0  0  0  0  0  0  0  0  0  0  0  0
   -4.4904   27.4762    9.6825 C   0  0  0  0  0  0  0  0  0  0  0  0
   -3.1025   27.4874    9.8525 O   0  0  0  0  0  0  0  0  0  0  0  0
  1  2  1  0
  2  3  1  0
  3  4  2  0
  3  5  2  0
  3  6  1  0
  6  7  1  0
  7  8  2  0
  8  9  1  0
  9 10  1  0
 10 11  2  0
 10 12  1  0
 12 13  1  0
  9 14  2  0
 14 15  1  0
 15 16  2  0
 16 17  1  0
 16  7  1  0
M  END
$$$$
