
     RDKit          3D

 24 25  0  0  0  0  0  0  0  0999 V2000
  156.7774  156.1041  151.3863 C   0  0  0  0  0  0  0  0  0  0  0  0
  155.9800  155.1785  150.4801 C   0  0  0  0  0  0  0  0  0  0  0  0
  154.6041  155.4206  150.6953 O   0  0  0  0  0  0  0  0  0  0  0  0
  153.6225  154.7875  149.9072 C   0  0  0  0  0  0  0  0  0  0  0  0
  153.9278  154.0847  148.7822 C   0  0  0  0  0  0  0  0  0  0  0  0
  152.9496  153.4771  148.0425 C   0  0  0  0  0  0  0  0  0  0  0  0
  151.5723  153.5461  148.4065 C   0  0  0  0  0  0  0  0  0  0  0  0
  150.6528  152.8920  147.5300 C   0  0  0  0  0  0  0  0  0  0  0  0
  150.7563  151.7453  146.8683 C   0  0  0  0  0  0  0  0  0  0  0  0
  150.0232  150.9821  145.9867 C   0  0  0  0  0  0  0  0  0  0  0  0
  148.8885  151.2302  145.4661 O   0  0  0  0  0  0  0  0  0  0  0  0
  150.5682  149.6467  145.5208 C   0  0  0  0  0  0  0  0  0  0  0  0
  149.8947  148.4890  145.7721 C   0  0  0  0  0  0  0  0  0  0  0  0
  150.4094  147.2728  145.3178 C   0  0  0  0  0  0  0  0  0  0  0  0
  149.7006  146.0870  145.5797 O   0  0  0  0  0  0  0  0  0  0  0  0
  151.6001  147.2392  144.6160 C   0  0  0  0  0  0  0  0  0  0  0  0
  152.2555  148.4179  144.3786 C   0  0  0  0  0  0  0  0  0  0  0  0
  151.7387  149.6308  144.8315 C   0  0  0  0  0  0  0  0  0  0  0  0
  152.4813  150.7749  144.5350 O   0  0  0  0  0  0  0  0  0  0  0  0
  151.2895  154.2548  149.5285 C   0  0  0  0  0  0  0  0  0  0  0  0
  152.3123  154.8806  150.2899 C   0  0  0  0  0  0  0  0  0  0  0  0
  151.9419  155.5804  151.4212 O   0  0  0  0  0  0  0  0  0  0  0  0
  151.6165  156.1958  152.4161 C   0  0  0  0  0  0  0  0  0  0  0  0
  150.5408  157.3219  152.3080 C   0  0  0  0  0  0  0  0  0  0  0  0
  1  2  1  0
  2  3  1  0
  3  4  1  0
  4  5  2  0
  5  6  1  0
  6  7  2  0
  7  8  1  0
  8  9  2  3
  9 10  1  0
 10 11  2  0
 10 12  1  0
 12 13  2  0
 13 14  1  0
 14 15  1  0
 14 16  2  0
 16 17  1  0
 17 18  2  0
 18 19  1  0
  7 20  1  0
 20 21  2  0
 21 22  1  0
 22 23  1  0
 23 24  1  0
 21  4  1  0
 18 12  1  0
M  END
$$$$
