
     RDKit          3D

 25 26  0  0  0  0  0  0  0  0999 V2000
  -68.7352  635.9774-2117.9177 C   0  0  0  0  0  0  0  0  0  0  0  0
  -68.9575  634.8857-2118.9504 C   0  0  0  0  0  0  0  0  0  0  0  0
  -67.9907  635.0639-2119.9653 O   0  0  0  0  0  0  0  0  0  0  0  0
  -66.6339  635.1707-2119.7026 C   0  0  0  0  0  0  0  0  0  0  0  0
  -65.8748  636.1588-2120.2869 C   0  0  0  0  0  0  0  0  0  0  0  0
  -66.4702  637.0812-2121.1663 O   0  0  0  0  0  0  0  0  0  0  0  0
  -66.1377  637.0782-2122.5359 C   0  0  0  0  0  0  0  0  0  0  0  0
  -64.5254  636.2682-2120.0271 C   0  0  0  0  0  0  0  0  0  0  0  0
  -63.8746  635.3925-2119.1707 C   0  0  0  0  0  0  0  0  0  0  0  0
  -62.4195  635.5611-2118.9290 C   0  0  0  0  0  0  0  0  0  0  0  0
  -61.9730  634.4071-2118.1936 N   0  0  0  0  0  0  0  0  0  0  0  0
  -62.9936  633.8362-2117.3433 C   0  0  0  0  0  0  0  0  0  0  0  0
  -64.2763  633.5753-2118.1123 C   0  0  0  0  0  0  0  0  0  0  0  0
  -64.1251  634.0287-2119.4385 O   0  0  0  0  0  0  0  0  0  0  0  0
  -65.4148  634.2782-2117.4695 C   0  0  0  0  0  0  0  0  0  0  0  0
  -65.1765  634.8766-2116.2283 C   0  0  0  0  0  0  0  0  0  0  0  0
  -66.2135  635.5381-2115.6025 C   0  0  0  0  0  0  0  0  0  0  0  0
  -67.4672  635.6309-2116.1514 C   0  0  0  0  0  0  0  0  0  0  0  0
  -68.7325  636.4873-2115.2971 Cl  0  0  0  0  0  0  0  0  0  0  0  0
  -67.6748  635.0282-2117.3818 C   0  0  0  0  0  0  0  0  0  0  0  0
  -66.6594  634.3613-2118.0288 C   0  0  0  0  0  0  0  0  0  0  0  0
  -64.6399  634.4058-2118.5898 C   0  0  0  0  0  0  0  0  0  0  0  0
  -65.9994  634.2839-2118.8423 C   0  0  0  0  0  0  0  0  0  0  0  0
  -66.7337  633.2715-2118.2327 O   0  0  0  0  0  0  0  0  0  0  0  0
  -66.1290  632.0811-2117.7822 C   0  0  0  0  0  0  0  0  0  0  0  0
  1  2  1  0
  2  3  1  0
  3  4  1  0
  4  5  2  0
  5  6  1  0
  6  7  1  0
  5  8  1  0
  8  9  2  0
  9 10  1  0
 10 11  1  0
 11 12  1  0
 12 13  1  0
 13 14  1  0
 13 15  1  0
 15 16  2  0
 16 17  1  0
 17 18  2  0
 18 19  1  0
 18 20  1  0
 20 21  2  0
  9 22  1  0
 22 23  2  0
 23 24  1  0
 24 25  1  0
 23  4  1  0
 21 15  1  0
M  END
$$$$
