
     RDKit          3D

 10 10  0  0  0  0  0  0  0  0999 V2000
    2.4159   -4.9932  -53.8208 O   0  0  0  0  0  0  0  0  0  0  0  0
    1.7245   -5.3632  -54.9224 N   0  0  0  0  0  0  0  0  0  0  0  0
    0.5734   -4.9302  -55.2586 C   0  0  0  0  0  0  0  0  0  0  0  0
   -0.1399   -5.5203  -56.3878 C   0  0  0  0  0  0  0  0  0  0  0  0
   -1.1175   -6.4629  -56.2353 C   0  0  0  0  0  0  0  0  0  0  0  0
   -1.8002   -7.0292  -57.2975 C   0  0  0  0  0  0  0  0  0  0  0  0
   -1.4959   -6.6384  -58.5856 C   0  0  0  0  0  0  0  0  0  0  0  0
   -0.5061   -5.6817  -58.7707 C   0  0  0  0  0  0  0  0  0  0  0  0
    0.1661   -5.1274  -57.6829 C   0  0  0  0  0  0  0  0  0  0  0  0
    1.3914   -3.9360  -58.0040 Cl  0  0  0  0  0  0  0  0  0  0  0  0
  1  2  1  0
  2  3  2  3
  3  4  1  0
  4  5  2  0
  5  6  1  0
  6  7  2  0
  7  8  1  0
  8  9  2  0
  9 10  1  0
  9  4  1  0
M  END
$$$$
