
     RDKit          3D

 21 23  0  0  0  0  0  0  0  0999 V2000
   14.8081   32.5916   24.6162 C   0  0  0  0  0  0  0  0  0  0  0  0
   13.7286   31.8535   25.3663 C   0  0  0  0  0  0  0  0  0  0  0  0
   13.2246   32.6563   26.4554 N   0  0  0  0  0  0  0  0  0  0  0  0
   13.2423   32.2054   27.7911 C   0  0  0  0  0  0  0  0  0  0  0  0
   12.7721   33.0795   28.7256 N   0  0  0  0  0  0  0  0  0  0  0  0
   12.7438   32.7677   30.0234 C   0  0  0  0  0  0  0  0  0  0  0  0
   12.2584   33.6847   30.9756 N   0  0  0  0  0  0  0  0  0  0  0  0
   11.6723   34.9241   30.5609 C   0  0  0  0  0  0  0  0  0  0  0  0
   11.1939   35.8133   31.4245 C   0  0  0  0  0  0  0  0  0  0  0  0
   10.4830   37.3230   30.8483 Cl  0  0  0  0  0  0  0  0  0  0  0  0
   11.2724   35.5174   32.8418 C   0  0  0  0  0  0  0  0  0  0  0  0
   10.6328   36.7075   33.9719 Cl  0  0  0  0  0  0  0  0  0  0  0  0
   11.8054   34.3935   33.2694 C   0  0  0  0  0  0  0  0  0  0  0  0
   12.3566   33.3604   32.3779 C   0  0  0  0  0  0  0  0  0  0  0  0
   13.1884   31.5684   30.4086 N   0  0  0  0  0  0  0  0  0  0  0  0
   13.6664   30.6495   29.5616 C   0  0  0  0  0  0  0  0  0  0  0  0
   14.1233   29.4150   29.9649 C   0  0  0  0  0  0  0  0  0  0  0  0
   14.6123   28.4833   29.0694 C   0  0  0  0  0  0  0  0  0  0  0  0
   14.6229   28.8464   27.7444 C   0  0  0  0  0  0  0  0  0  0  0  0
   14.1735   30.0790   27.2856 C   0  0  0  0  0  0  0  0  0  0  0  0
   13.6936   30.9793   28.2129 C   0  0  0  0  0  0  0  0  0  0  0  0
  1  2  1  0
  2  3  1  0
  3  4  1  0
  4  5  2  0
  5  6  1  0
  6  7  1  0
  7  8  1  0
  8  9  2  0
  9 10  1  0
  9 11  1  0
 11 12  1  0
 11 13  2  0
 13 14  1  0
  6 15  2  0
 15 16  1  0
 16 17  2  0
 17 18  1  0
 18 19  2  0
 19 20  1  0
 20 21  2  0
 21  4  1  0
 14  7  1  0
 21 16  1  0
M  END
$$$$
