
     RDKit          3D

 22 24  0  0  0  0  0  0  0  0999 V2000
  128.5637  144.1397  151.1052 F   0  0  0  0  0  0  0  0  0  0  0  0
  127.8307  144.5975  150.0645 C   0  0  0  0  0  0  0  0  0  0  0  0
  127.7696  145.9742  149.9288 C   0  0  0  0  0  0  0  0  0  0  0  0
  128.6642  147.1310  151.1372 Br  0  0  0  0  0  0  0  0  0  0  0  0
  127.0407  146.5019  148.8894 C   0  0  0  0  0  0  0  0  0  0  0  0
  126.3905  145.6442  148.0115 C   0  0  0  0  0  0  0  0  0  0  0  0
  126.4621  144.2733  148.1613 C   0  0  0  0  0  0  0  0  0  0  0  0
  127.1908  143.7372  149.1984 C   0  0  0  0  0  0  0  0  0  0  0  0
  127.3319  142.2807  149.4345 C   0  0  0  0  0  0  0  0  0  0  0  0
  127.3469  141.5546  148.1516 N   0  0  0  0  0  0  0  0  0  0  0  0
  126.0128  141.0570  147.9422 C   0  0  0  0  0  0  0  0  0  0  0  0
  126.0165  139.7415  147.1656 C   0  0  0  0  0  0  0  0  0  0  0  0
  126.6761  138.7143  147.8881 N   0  0  0  0  0  0  0  0  0  0  0  0
  125.8794  137.7457  148.5397 C   0  0  0  0  0  0  0  0  0  0  0  0
  125.0450  136.8834  147.7138 C   0  0  0  0  0  0  0  0  0  0  0  0
  125.5564  136.0512  146.7589 C   0  0  0  0  0  0  0  0  0  0  0  0
  124.7364  135.2246  145.9796 C   0  0  0  0  0  0  0  0  0  0  0  0
  123.3635  135.2318  146.1625 C   0  0  0  0  0  0  0  0  0  0  0  0
  122.8401  136.0748  147.1286 C   0  0  0  0  0  0  0  0  0  0  0  0
  123.6536  136.8878  147.8941 C   0  0  0  0  0  0  0  0  0  0  0  0
  127.6463  139.2585  148.8017 C   0  0  0  0  0  0  0  0  0  0  0  0
  128.3282  140.4860  148.2312 C   0  0  0  0  0  0  0  0  0  0  0  0
  1  2  1  0
  2  3  2  0
  3  4  1  0
  3  5  1  0
  5  6  2  0
  6  7  1  0
  7  8  2  0
  8  9  1  0
  9 10  1  0
 10 11  1  0
 11 12  1  0
 12 13  1  0
 13 14  1  0
 14 15  1  0
 15 16  2  0
 16 17  1  0
 17 18  2  0
 18 19  1  0
 19 20  2  0
 13 21  1  0
 21 22  1  0
  8  2  1  0
 22 10  1  0
 20 15  1  0
M  END
$$$$
