
     RDKit          3D

 15 16  0  0  0  0  0  0  0  0999 V2000
    1.4200   25.5483   -7.0604 C   0  0  0  0  0  0  0  0  0  0  0  0
    0.7680   26.6770   -7.7897 C   0  0  0  0  0  0  0  0  0  0  0  0
    0.7651   26.4242   -9.2872 C   0  0  0  0  0  0  0  0  0  0  0  0
   -0.5646   26.7453   -7.3842 O   0  0  0  0  0  0  0  0  0  0  0  0
    1.4239   27.9983   -7.4873 C   0  0  0  0  0  0  0  0  0  0  0  0
    1.4172   28.4893   -6.2789 C   0  0  0  0  0  0  0  0  0  0  0  0
    1.9871   29.7877   -5.9480 C   0  0  0  0  0  0  0  0  0  0  0  0
    2.0182   30.2306   -4.6586 C   0  0  0  0  0  0  0  0  0  0  0  0
    2.5747   31.4800   -4.3990 C   0  0  0  0  0  0  0  0  0  0  0  0
    3.0803   32.2467   -5.4213 C   0  0  0  0  0  0  0  0  0  0  0  0
    3.6808   33.5028   -5.4558 C   0  0  0  0  0  0  0  0  0  0  0  0
    4.0120   33.8205   -6.7558 C   0  0  0  0  0  0  0  0  0  0  0  0
    3.6246   32.7819   -7.5135 N   0  0  0  0  0  0  0  0  0  0  0  0
    3.0596   31.8199   -6.7302 C   0  0  0  0  0  0  0  0  0  0  0  0
    2.5095   30.5903   -6.9685 C   0  0  0  0  0  0  0  0  0  0  0  0
  1  2  1  0
  2  3  1  0
  2  4  1  0
  2  5  1  0
  5  6  2  0
  6  7  1  0
  7  8  2  0
  8  9  1  0
  9 10  2  0
 10 11  1  0
 11 12  2  0
 12 13  1  0
 13 14  1  0
 14 15  2  0
 15  7  1  0
 14 10  1  0
M  END
$$$$
