
     RDKit          3D

 22 23  0  0  0  0  0  0  0  0999 V2000
  132.0430  141.9417  158.6792 C   0  0  0  0  0  0  0  0  0  0  0  0
  133.0249  141.3475  157.7434 C   0  0  0  0  0  0  0  0  0  0  0  0
  133.0552  141.8869  156.4136 N   0  0  0  0  0  4  0  0  0  0  0  0
  134.3727  142.1622  155.9163 C   0  0  0  0  0  0  0  0  0  0  0  0
  135.4558  141.5079  156.7472 C   0  0  0  0  0  0  0  0  0  0  0  0
  132.2931  141.1544  155.4534 C   0  0  0  0  0  0  0  0  0  0  0  0
  130.8105  141.1903  155.6253 C   0  0  0  0  0  0  0  0  0  0  0  0
  130.0804  140.3245  154.2083 S   0  0  0  0  0  0  0  0  0  0  0  0
  130.9191  140.8642  152.6683 C   0  0  0  0  0  0  0  0  0  0  0  0
  129.9412  140.6448  151.5233 C   0  0  0  0  0  0  0  0  0  0  0  0
  129.3593  141.9506  151.2105 N   0  0  0  0  0  0  0  0  0  0  0  0
  128.4743  142.1430  150.1153 C   0  0  0  0  0  0  0  0  0  0  0  0
  128.0363  141.0753  149.3611 C   0  0  0  0  0  0  0  0  0  0  0  0
  127.1577  141.2873  148.3204 C   0  0  0  0  0  0  0  0  0  0  0  0
  126.7273  142.5285  148.0396 N   0  0  0  0  0  0  0  0  0  0  0  0
  127.1251  143.5915  148.7448 C   0  0  0  0  0  0  0  0  0  0  0  0
  126.6576  144.8653  148.4200 C   0  0  0  0  0  0  0  0  0  0  0  0
  127.0911  145.9305  149.1644 C   0  0  0  0  0  0  0  0  0  0  0  0
  126.5040  147.5190  148.7536 Cl  0  0  0  0  0  0  0  0  0  0  0  0
  127.9654  145.7932  150.2146 C   0  0  0  0  0  0  0  0  0  0  0  0
  128.4223  144.5072  150.5241 C   0  0  0  0  0  0  0  0  0  0  0  0
  128.0126  143.4141  149.8033 C   0  0  0  0  0  0  0  0  0  0  0  0
  1  2  1  0
  2  3  1  0
  3  4  1  0
  4  5  1  0
  3  6  1  0
  6  7  1  0
  7  8  1  0
  8  9  1  0
  9 10  1  0
 10 11  1  0
 11 12  1  0
 12 13  2  0
 13 14  1  0
 14 15  2  0
 15 16  1  0
 16 17  2  0
 17 18  1  0
 18 19  1  0
 18 20  2  0
 20 21  1  0
 21 22  2  0
 22 12  1  0
 22 16  1  0
M  CHG  1   3   1
M  END
$$$$
