
     RDKit          3D

 20 21  0  0  0  0  0  0  0  0999 V2000
  151.1343  157.0182  152.7988 C   0  0  0  0  0  0  0  0  0  0  0  0
  151.7505  157.1124  151.4072 C   0  0  0  0  0  0  0  0  0  0  0  0
  151.5314  155.9350  150.5898 C   0  0  0  0  0  0  0  0  0  0  0  0
  151.9727  155.6917  149.3633 C   0  0  0  0  0  0  0  0  0  0  0  0
  152.4739  156.8601  148.5530 C   0  0  0  0  0  0  0  0  0  0  0  0
  151.8259  154.3723  148.8009 C   0  0  0  0  0  0  0  0  0  0  0  0
  151.2625  153.4927  149.5458 O   0  0  0  0  0  0  0  0  0  0  0  0
  152.1934  153.8690  147.5495 N   0  0  0  0  0  0  0  0  0  0  0  0
  152.6755  154.8373  146.5237 C   0  0  0  0  0  0  0  0  0  0  0  0
  151.5503  155.2510  145.6251 C   0  0  0  0  0  0  0  0  0  0  0  0
  152.0123  152.5490  147.0597 C   0  0  0  0  0  0  0  0  0  0  0  0
  153.1977  151.9984  146.3459 C   0  0  0  0  0  0  0  0  0  0  0  0
  153.1135  151.3899  145.0843 C   0  0  0  0  0  0  0  0  0  0  0  0
  154.3511  151.0239  144.7707 N   0  0  0  0  0  0  0  0  0  0  0  0
  155.2390  151.3545  145.7469 C   0  0  0  0  0  0  0  0  0  0  0  0
  156.5992  151.1869  145.8749 C   0  0  0  0  0  0  0  0  0  0  0  0
  157.2712  151.6252  146.9930 C   0  0  0  0  0  0  0  0  0  0  0  0
  156.5677  152.2432  148.0029 C   0  0  0  0  0  0  0  0  0  0  0  0
  155.2081  152.4042  147.8620 C   0  0  0  0  0  0  0  0  0  0  0  0
  154.4941  151.9755  146.7474 C   0  0  0  0  0  0  0  0  0  0  0  0
  1  2  1  0
  2  3  1  0
  3  4  2  0
  4  5  1  0
  4  6  1  0
  6  7  2  0
  6  8  1  0
  8  9  1  0
  9 10  1  0
  8 11  1  0
 11 12  1  0
 12 13  2  0
 13 14  1  0
 14 15  1  0
 15 16  2  0
 16 17  1  0
 17 18  2  0
 18 19  1  0
 19 20  2  0
 20 12  1  0
 20 15  1  0
M  END
$$$$
