
     RDKit          3D

 26 28  0  0  0  0  0  0  0  0999 V2000
  113.5916  148.7176  139.6815 C   0  0  0  0  0  0  0  0  0  0  0  0
  114.0415  149.9612  140.3699 C   0  0  0  0  0  0  0  0  0  0  0  0
  114.8553  149.7364  141.5072 O   0  0  0  0  0  0  0  0  0  0  0  0
  116.1806  149.4207  141.4536 C   0  0  0  0  0  0  0  0  0  0  0  0
  116.7369  149.4760  140.3066 O   0  0  0  0  0  0  0  0  0  0  0  0
  117.0290  149.0285  142.5657 C   0  0  0  0  0  0  0  0  0  0  0  0
  116.6219  149.1388  143.8847 C   0  0  0  0  0  0  0  0  0  0  0  0
  117.4012  148.7628  144.9142 N   0  0  0  0  0  0  0  0  0  0  0  0
  118.6253  148.2582  144.6760 C   0  0  0  0  0  0  0  0  0  0  0  0
  119.4427  147.8642  145.7339 C   0  0  0  0  0  0  0  0  0  0  0  0
  120.6932  147.3492  145.4719 C   0  0  0  0  0  0  0  0  0  0  0  0
  121.1766  147.2052  144.1905 C   0  0  0  0  0  0  0  0  0  0  0  0
  120.3701  147.5944  143.1408 C   0  0  0  0  0  0  0  0  0  0  0  0
  119.1145  148.1124  143.3858 C   0  0  0  0  0  0  0  0  0  0  0  0
  118.2842  148.5101  142.3575 C   0  0  0  0  0  0  0  0  0  0  0  0
  118.7972  148.3739  141.0371 N   0  0  0  0  0  0  0  0  0  0  0  0
  118.0071  147.4784  140.1771 C   0  0  0  0  0  0  0  0  0  0  0  0
  118.6290  147.2409  138.8719 C   0  0  0  0  0  0  0  0  0  0  0  0
  119.9246  147.6582  138.6726 C   0  0  0  0  0  0  0  0  0  0  0  0
  120.5891  147.4778  137.4729 C   0  0  0  0  0  0  0  0  0  0  0  0
  119.9292  146.8582  136.4423 C   0  0  0  0  0  0  0  0  0  0  0  0
  120.5617  146.6468  135.1901 N   0  0  0  0  0  4  0  0  0  0  0  0
  121.7339  146.9935  134.9636 O   0  0  0  0  0  0  0  0  0  0  0  0
  119.8580  146.0380  134.1900 O   0  0  0  0  0  1  0  0  0  0  0  0
  118.6199  146.4243  136.6101 C   0  0  0  0  0  0  0  0  0  0  0  0
  117.9974  146.6222  137.8141 C   0  0  0  0  0  0  0  0  0  0  0  0
  1  2  1  0
  2  3  1  0
  3  4  1  0
  4  5  2  0
  4  6  1  0
  6  7  2  0
  7  8  1  0
  8  9  2  0
  9 10  1  0
 10 11  2  0
 11 12  1  0
 12 13  2  0
 13 14  1  0
 14 15  2  0
 15 16  1  0
 16 17  1  0
 17 18  1  0
 18 19  2  0
 19 20  1  0
 20 21  2  0
 21 22  1  0
 22 23  2  0
 22 24  1  0
 21 25  1  0
 25 26  2  0
 15  6  1  0
 26 18  1  0
 14  9  1  0
M  CHG  2  22   1  24  -1
M  END
$$$$
