
     RDKit          3D

 26 28  0  0  0  0  0  0  0  0999 V2000
  137.9758  157.4916  142.3723 C   0  0  0  0  0  0  0  0  0  0  0  0
  139.1603  156.5970  142.2341 C   0  0  0  0  0  0  0  0  0  0  0  0
  139.6015  156.0214  143.4508 O   0  0  0  0  0  0  0  0  0  0  0  0
  138.8890  155.1104  144.1729 C   0  0  0  0  0  0  0  0  0  0  0  0
  137.7752  154.7321  143.6786 O   0  0  0  0  0  0  0  0  0  0  0  0
  139.2641  154.5225  145.4472 C   0  0  0  0  0  0  0  0  0  0  0  0
  140.3756  154.9410  146.1593 C   0  0  0  0  0  0  0  0  0  0  0  0
  140.7155  154.4069  147.3458 N   0  0  0  0  0  0  0  0  0  0  0  0
  139.9615  153.4286  147.8788 C   0  0  0  0  0  0  0  0  0  0  0  0
  140.3024  152.8670  149.1080 C   0  0  0  0  0  0  0  0  0  0  0  0
  139.5188  151.8664  149.6393 C   0  0  0  0  0  0  0  0  0  0  0  0
  138.3968  151.3907  148.9979 C   0  0  0  0  0  0  0  0  0  0  0  0
  138.0564  151.9443  147.7808 C   0  0  0  0  0  0  0  0  0  0  0  0
  138.8307  152.9477  147.2343 C   0  0  0  0  0  0  0  0  0  0  0  0
  138.5163  153.5217  146.0191 C   0  0  0  0  0  0  0  0  0  0  0  0
  137.3652  153.0134  145.3546 N   0  0  0  0  0  0  0  0  0  0  0  0
  136.1776  152.8994  146.2165 C   0  0  0  0  0  0  0  0  0  0  0  0
  135.0461  152.2493  145.5505 C   0  0  0  0  0  0  0  0  0  0  0  0
  135.1855  151.8654  144.2368 C   0  0  0  0  0  0  0  0  0  0  0  0
  134.1698  151.2481  143.5293 C   0  0  0  0  0  0  0  0  0  0  0  0
  132.9771  151.0099  144.1638 C   0  0  0  0  0  0  0  0  0  0  0  0
  131.9010  150.3801  143.4870 N   0  0  0  0  0  4  0  0  0  0  0  0
  130.7833  150.2197  144.0071 O   0  0  0  0  0  0  0  0  0  0  0  0
  132.0965  149.9301  142.2121 O   0  0  0  0  0  1  0  0  0  0  0  0
  132.8029  151.3849  145.4902 C   0  0  0  0  0  0  0  0  0  0  0  0
  133.8339  151.9940  146.1554 C   0  0  0  0  0  0  0  0  0  0  0  0
  1  2  1  0
  2  3  1  0
  3  4  1  0
  4  5  2  0
  4  6  1  0
  6  7  2  0
  7  8  1  0
  8  9  2  0
  9 10  1  0
 10 11  2  0
 11 12  1  0
 12 13  2  0
 13 14  1  0
 14 15  2  0
 15 16  1  0
 16 17  1  0
 17 18  1  0
 18 19  2  0
 19 20  1  0
 20 21  2  0
 21 22  1  0
 22 23  2  0
 22 24  1  0
 21 25  1  0
 25 26  2  0
 15  6  1  0
 26 18  1  0
 14  9  1  0
M  CHG  2  22   1  24  -1
M  END
$$$$
