
     RDKit          3D

 21 22  0  0  0  0  0  0  0  0999 V2000
    0.7719   -2.9198  -53.1322 C   0  0  0  0  0  0  0  0  0  0  0  0
    0.8100   -3.6536  -54.2047 C   0  0  0  0  0  0  0  0  0  0  0  0
    2.0145   -4.3994  -54.6723 C   0  0  0  0  0  0  0  0  0  0  0  0
    2.4207   -5.4001  -53.6143 C   0  0  0  0  0  0  0  0  0  0  0  0
    1.8169   -4.9942  -55.9629 N   0  0  0  0  0  0  0  0  0  0  0  0
    1.5302   -4.2050  -57.1054 C   0  0  0  0  0  0  0  0  0  0  0  0
    1.3620   -2.9643  -56.9336 O   0  0  0  0  0  0  0  0  0  0  0  0
    1.4293   -4.7596  -58.4072 N   0  0  0  0  0  0  0  0  0  0  0  0
    0.2277   -5.5660  -58.6983 C   0  0  0  0  0  0  0  0  0  0  0  0
   -0.8108   -4.6798  -59.3740 C   0  0  0  0  0  0  0  0  0  0  0  0
   -2.0949   -5.4101  -59.5988 C   0  0  0  0  0  0  0  0  0  0  0  0
   -2.6691   -5.3909  -60.9650 C   0  0  0  0  0  0  0  0  0  0  0  0
   -2.7343   -6.7403  -61.5847 C   0  0  0  0  0  0  0  0  0  0  0  0
   -3.9260   -7.5126  -61.6049 C   0  0  0  0  0  0  0  0  0  0  0  0
   -3.7328   -8.6590  -62.2508 N   0  0  0  0  0  0  0  0  0  0  0  0
   -2.4563   -8.6819  -62.6624 C   0  0  0  0  0  0  0  0  0  0  0  0
   -1.7370   -9.6418  -63.3652 C   0  0  0  0  0  0  0  0  0  0  0  0
   -0.4090   -9.4143  -63.6509 C   0  0  0  0  0  0  0  0  0  0  0  0
    0.2313   -8.2606  -63.2599 C   0  0  0  0  0  0  0  0  0  0  0  0
   -0.5010   -7.3222  -62.5644 C   0  0  0  0  0  0  0  0  0  0  0  0
   -1.8332   -7.5142  -62.2610 C   0  0  0  0  0  0  0  0  0  0  0  0
  1  2  2  0
  2  3  1  0
  3  4  1  0
  3  5  1  0
  5  6  1  0
  6  7  2  0
  6  8  1  0
  8  9  1  0
  9 10  1  0
 10 11  1  0
 11 12  1  0
 12 13  1  0
 13 14  2  0
 14 15  1  0
 15 16  1  0
 16 17  2  0
 17 18  1  0
 18 19  2  0
 19 20  1  0
 20 21  2  0
 21 13  1  0
 21 16  1  0
M  END
$$$$
