
     RDKit          3D

 25 26  0  0  0  0  0  0  0  0999 V2000
   17.3151   29.1884   25.0161 C   0  0  0  0  0  0  0  0  0  0  0  0
   16.5161   27.9290   25.0973 C   0  0  0  0  0  0  0  0  0  0  0  0
   15.2438   28.2093   25.6126 O   0  0  0  0  0  0  0  0  0  0  0  0
   14.1914   28.6957   24.8689 C   0  0  0  0  0  0  0  0  0  0  0  0
   13.0434   29.1140   25.4927 C   0  0  0  0  0  0  0  0  0  0  0  0
   11.9739   29.6073   24.7308 C   0  0  0  0  0  0  0  0  0  0  0  0
   12.0725   29.6731   23.3634 C   0  0  0  0  0  0  0  0  0  0  0  0
   10.9650   30.1898   22.4881 C   0  0  0  0  0  0  0  0  0  0  0  0
   10.5909   29.1149   21.6297 N   0  0  0  0  0  0  0  0  0  0  0  0
    9.6943   29.4307   20.5648 C   0  0  0  0  0  0  0  0  0  0  0  0
    9.2489   28.2018   19.8156 C   0  0  0  0  0  0  0  0  0  0  0  0
   10.1072   30.5680   19.6835 C   0  0  0  0  0  0  0  0  0  0  0  0
   11.1462   30.2307   18.7988 O   0  0  0  0  0  0  0  0  0  0  0  0
    8.9146   31.0526   18.9329 C   0  0  0  0  0  0  0  0  0  0  0  0
    8.2558   32.1796   19.3779 C   0  0  0  0  0  0  0  0  0  0  0  0
    8.6373   32.8735   20.4760 F   0  0  0  0  0  0  0  0  0  0  0  0
    7.1396   32.6636   18.6967 C   0  0  0  0  0  0  0  0  0  0  0  0
    6.6763   32.0245   17.5681 C   0  0  0  0  0  0  0  0  0  0  0  0
    7.3580   30.8905   17.1398 C   0  0  0  0  0  0  0  0  0  0  0  0
    8.4612   30.4041   17.8048 C   0  0  0  0  0  0  0  0  0  0  0  0
    9.2657   28.9673   17.1843 Cl  0  0  0  0  0  0  0  0  0  0  0  0
   13.2438   29.2425   22.7791 C   0  0  0  0  0  0  0  0  0  0  0  0
   14.3050   28.7577   23.4735 C   0  0  0  0  0  0  0  0  0  0  0  0
   15.4875   28.3195   22.9290 O   0  0  0  0  0  0  0  0  0  0  0  0
   15.7857   28.2085   21.5785 C   0  0  0  0  0  0  0  0  0  0  0  0
  1  2  1  0
  2  3  1  0
  3  4  1  0
  4  5  2  0
  5  6  1  0
  6  7  2  0
  7  8  1  0
  8  9  1  0
  9 10  1  0
 10 11  1  0
 10 12  1  0
 12 13  1  0
 12 14  1  0
 14 15  2  0
 15 16  1  0
 15 17  1  0
 17 18  2  0
 18 19  1  0
 19 20  2  0
 20 21  1  0
  7 22  1  0
 22 23  2  0
 23 24  1  0
 24 25  1  0
 23  4  1  0
 20 14  1  0
M  END
$$$$
