
     RDKit          3D

 22 24  0  0  0  0  0  0  0  0999 V2000
  168.0837  143.2564  150.6907 C   0  0  0  0  0  0  0  0  0  0  0  0
  168.9548  143.9268  151.7511 C   0  0  0  0  0  0  0  0  0  0  0  0
  170.4124  143.8561  151.2858 C   0  0  0  0  0  0  0  0  0  0  0  0
  168.8583  143.1654  152.9078 O   0  0  0  0  0  0  0  0  0  0  0  0
  168.5761  143.6352  154.1815 C   0  0  0  0  0  0  0  0  0  0  0  0
  168.3391  144.9699  154.4759 C   0  0  0  0  0  0  0  0  0  0  0  0
  168.0622  145.3965  155.7549 C   0  0  0  0  0  0  0  0  0  0  0  0
  168.0141  144.4912  156.7851 C   0  0  0  0  0  0  0  0  0  0  0  0
  168.2441  143.1380  156.5472 C   0  0  0  0  0  0  0  0  0  0  0  0
  168.1990  142.2683  157.5303 O   0  0  0  0  0  0  0  0  0  0  0  0
  168.4059  140.9798  157.3756 C   0  0  0  0  0  0  0  0  0  0  0  0
  168.3405  140.0639  158.5163 C   0  0  0  0  0  0  0  0  0  0  0  0
  168.2363  140.5609  159.8110 C   0  0  0  0  0  0  0  0  0  0  0  0
  168.1750  139.6997  160.8809 C   0  0  0  0  0  0  0  0  0  0  0  0
  168.2153  138.3229  160.6979 C   0  0  0  0  0  0  0  0  0  0  0  0
  168.1544  137.4393  161.7678 O   0  0  0  0  0  0  0  0  0  0  0  0
  168.3182  137.8007  159.4273 C   0  0  0  0  0  0  0  0  0  0  0  0
  168.3776  138.7173  158.3682 C   0  0  0  0  0  0  0  0  0  0  0  0
  168.6810  140.5515  156.1086 C   0  0  0  0  0  0  0  0  0  0  0  0
  168.7429  141.4259  155.0229 C   0  0  0  0  0  0  0  0  0  0  0  0
  168.9988  140.9530  153.9056 O   0  0  0  0  0  0  0  0  0  0  0  0
  168.5155  142.7654  155.2567 C   0  0  0  0  0  0  0  0  0  0  0  0
  1  2  1  0
  2  3  1  0
  2  4  1  0
  4  5  1  0
  5  6  2  0
  6  7  1  0
  7  8  2  0
  8  9  1  0
  9 10  1  0
 10 11  1  0
 11 12  1  0
 12 13  2  0
 13 14  1  0
 14 15  2  0
 15 16  1  0
 15 17  1  0
 17 18  2  0
 11 19  2  0
 19 20  1  0
 20 21  2  0
 20 22  1  0
 22  5  1  0
 22  9  2  0
 18 12  1  0
M  END
$$$$
