
     RDKit          3D

 22 23  0  0  0  0  0  0  0  0999 V2000
  152.8363  156.5090  145.6389 C   0  0  0  0  0  0  0  0  0  0  0  0
  152.1416  155.5906  146.4704 O   0  0  0  0  0  0  0  0  0  0  0  0
  152.3493  154.2273  146.2447 C   0  0  0  0  0  0  0  0  0  0  0  0
  153.0650  153.7586  145.1503 C   0  0  0  0  0  0  0  0  0  0  0  0
  153.2589  152.4032  144.9458 C   0  0  0  0  0  0  0  0  0  0  0  0
  152.7450  151.4745  145.8267 C   0  0  0  0  0  0  0  0  0  0  0  0
  152.9359  150.0037  145.6322 C   0  0  0  0  0  0  0  0  0  0  0  0
  151.6839  149.3823  145.3345 N   0  0  0  0  0  0  0  0  0  0  0  0
  151.7327  147.9506  145.2007 C   0  0  0  0  0  0  0  0  0  0  0  0
  150.3834  147.3598  144.8529 C   0  0  1  0  0  0  0  0  0  0  0  0
  149.7918  148.0943  143.8186 O   0  0  0  0  0  0  0  0  0  0  0  0
  150.4743  145.9572  144.4003 C   0  0  0  0  0  0  0  0  0  0  0  0
  150.5873  144.9281  145.3116 C   0  0  0  0  0  0  0  0  0  0  0  0
  150.6772  143.6027  144.9633 C   0  0  0  0  0  0  0  0  0  0  0  0
  150.6552  143.2507  143.6241 C   0  0  0  0  0  0  0  0  0  0  0  0
  150.5436  144.2492  142.6903 C   0  0  0  0  0  0  0  0  0  0  0  0
  150.5186  143.7835  141.0062 Cl  0  0  0  0  0  0  0  0  0  0  0  0
  150.4541  145.5810  143.0581 C   0  0  0  0  0  0  0  0  0  0  0  0
  152.0266  151.9158  146.9276 C   0  0  0  0  0  0  0  0  0  0  0  0
  151.3066  150.6537  148.1584 Br  0  0  0  0  0  0  0  0  0  0  0  0
  151.8496  153.2707  147.1053 C   0  0  0  0  0  0  0  0  0  0  0  0
  151.1302  153.7108  148.2078 O   0  0  0  0  0  0  0  0  0  0  0  0
  1  2  1  0
  2  3  1  0
  3  4  2  0
  4  5  1  0
  5  6  2  0
  6  7  1  0
  7  8  1  0
  8  9  1  0
  9 10  1  0
 10 11  1  6
 10 12  1  0
 12 13  2  0
 13 14  1  0
 14 15  2  0
 15 16  1  0
 16 17  1  0
 16 18  2  0
  6 19  1  0
 19 20  1  0
 19 21  2  0
 21 22  1  0
 21  3  1  0
 18 12  1  0
M  END
$$$$
