
     RDKit          3D

 24 26  0  0  0  0  0  0  0  0999 V2000
  129.0991  141.2746  144.4677 C   0  0  0  0  0  0  0  0  0  0  0  0
  127.7935  140.7217  144.8022 C   0  0  0  0  0  0  0  0  0  0  0  0
  127.0639  140.2559  143.7892 C   0  0  0  0  0  0  0  0  0  0  0  0
  126.4130  138.7708  144.1640 P   0  0  0  0  0  0  0  0  0  0  0  0
  126.9614  138.1980  145.8416 C   0  0  0  0  0  0  0  0  0  0  0  0
  127.3004  139.2131  146.6620 C   0  0  0  0  0  0  0  0  0  0  0  0
  127.7516  138.9503  148.0062 C   0  0  0  0  0  0  0  0  0  0  0  0
  127.7978  137.5877  148.4945 N   0  0  0  0  0  0  0  0  0  0  0  0
  128.2409  137.3280  149.8415 C   0  0  0  0  0  0  0  0  0  0  0  0
  127.1323  137.7050  150.7982 C   0  0  0  0  0  0  0  0  0  0  0  0
  127.6007  138.4353  151.8792 O   0  0  0  0  0  0  0  0  0  0  0  0
  128.1139  139.9129  148.7864 N   0  0  0  0  0  0  0  0  0  0  0  0
  128.0525  141.2648  148.2841 C   0  0  0  0  0  0  0  0  0  0  0  0
  128.4226  142.3145  149.1691 N   0  0  0  0  0  0  0  0  0  0  0  0
  127.9165  143.6293  149.0771 C   0  0  0  0  0  0  0  0  0  0  0  0
  127.2164  144.0459  147.9746 C   0  0  0  0  0  0  0  0  0  0  0  0
  126.7214  145.3498  147.9222 C   0  0  0  0  0  0  0  0  0  0  0  0
  126.8958  146.2664  148.9311 C   0  0  0  0  0  0  0  0  0  0  0  0
  126.2536  147.8893  148.8137 Cl  0  0  0  0  0  0  0  0  0  0  0  0
  127.6063  145.8229  150.0345 C   0  0  0  0  0  0  0  0  0  0  0  0
  127.8510  146.9618  151.3439 Cl  0  0  0  0  0  0  0  0  0  0  0  0
  128.1037  144.5431  150.1093 C   0  0  0  0  0  0  0  0  0  0  0  0
  127.6497  141.5524  147.1036 N   0  0  0  0  0  0  0  0  0  0  0  0
  127.2037  140.6149  146.1309 C   0  0  0  0  0  0  0  0  0  0  0  0
  1  2  1  0
  2  3  2  0
  3  4  2  0
  4  5  1  0
  5  6  2  0
  6  7  1  0
  7  8  1  0
  8  9  1  0
  9 10  1  0
 10 11  1  0
  7 12  2  0
 12 13  1  0
 13 14  1  0
 14 15  1  0
 15 16  2  0
 16 17  1  0
 17 18  2  0
 18 19  1  0
 18 20  1  0
 20 21  1  0
 20 22  2  0
 13 23  2  0
 23 24  1  0
 24  2  1  0
 24  6  1  0
 22 15  1  0
M  END
$$$$
