
     RDKit          3D

 20 22  0  0  0  0  0  0  0  0999 V2000
   -0.8581   -5.0667  -32.5901 Cl  0  0  0  0  0  0  0  0  0  0  0  0
   -0.2525   -4.0983  -33.9249 C   0  0  0  0  0  0  0  0  0  0  0  0
    0.4946   -3.0328  -33.6713 C   0  0  0  0  0  0  0  0  0  0  0  0
    1.0680   -2.1313  -34.7087 C   0  0  0  0  0  0  0  0  0  0  0  0
    0.4741   -0.7976  -34.6524 N   0  0  0  0  0  0  0  0  0  0  0  0
   -0.4551   -0.4318  -35.6596 C   0  0  0  0  0  0  0  0  0  0  0  0
   -1.1438   -1.3629  -36.2993 N   0  0  0  0  0  0  0  0  0  0  0  0
   -2.0375   -1.0667  -37.2554 C   0  0  0  0  0  0  0  0  0  0  0  0
   -2.2264    0.2218  -37.5599 N   0  0  0  0  0  0  0  0  0  0  0  0
   -1.5697    1.2229  -36.9596 C   0  0  0  0  0  0  0  0  0  0  0  0
   -1.8021    2.5380  -37.3128 C   0  0  0  0  0  0  0  0  0  0  0  0
   -1.1001    3.5261  -36.6655 C   0  0  0  0  0  0  0  0  0  0  0  0
   -0.1771    3.2292  -35.6795 C   0  0  0  0  0  0  0  0  0  0  0  0
    0.0524    1.9016  -35.3282 C   0  0  0  0  0  0  0  0  0  0  0  0
   -0.6467    0.9066  -35.9715 C   0  0  0  0  0  0  0  0  0  0  0  0
   -2.7668   -2.0676  -37.9329 N   0  0  0  0  0  0  0  0  0  0  0  0
   -2.4193   -3.4838  -37.8509 C   0  0  0  0  0  0  0  0  0  0  0  0
   -3.1241   -4.0632  -36.7019 C   0  0  0  0  0  0  0  0  0  0  0  0
   -2.4882   -4.5889  -35.6637 C   0  0  0  0  0  0  0  0  0  0  0  0
   -0.7026   -4.6379  -35.5721 S   0  0  0  0  0  2  0  0  0  0  0  0
  1  2  1  0
  2  3  2  0
  3  4  1  0
  4  5  1  0
  5  6  1  0
  6  7  1  0
  7  8  2  0
  8  9  1  0
  9 10  2  0
 10 11  1  0
 11 12  2  0
 12 13  1  0
 13 14  2  0
 14 15  1  0
  8 16  1  0
 16 17  1  0
 17 18  1  0
 18 19  2  0
 19 20  1  0
 20  2  1  0
 15  6  2  0
 15 10  1  0
M  CHG  1  20   1
M  RAD  1  20   2
M  END
$$$$
