
     RDKit          3D

 28 30  0  0  0  0  0  0  0  0999 V2000
    8.4303   30.3620   -0.3042 C   0  0  0  0  0  0  0  0  0  0  0  0
    7.2962   31.2046   -0.2440 O   0  0  0  0  0  0  0  0  0  0  0  0
    6.3515   31.1169   -1.2666 C   0  0  0  0  0  0  0  0  0  0  0  0
    5.1740   31.8541   -1.1857 C   0  0  0  0  0  0  0  0  0  0  0  0
    4.2426   31.7650   -2.1980 C   0  0  0  0  0  0  0  0  0  0  0  0
    4.4400   30.9614   -3.3006 C   0  0  0  0  0  0  0  0  0  0  0  0
    3.4183   30.8809   -4.3836 C   0  0  0  0  0  0  0  0  0  0  0  0
    2.8078   29.7803   -4.6872 N   0  0  0  0  0  0  0  0  0  0  0  0
    1.9111   29.7673   -5.6565 C   0  0  0  0  0  0  0  0  0  0  0  0
    1.1234   28.6904   -6.1602 N   0  0  0  0  0  0  0  0  0  0  0  0
    0.8071   28.5310   -7.5186 C   0  0  0  0  0  0  0  0  0  0  0  0
    0.2080   29.4704   -8.0976 O   0  0  0  0  0  0  0  0  0  0  0  0
    1.1306   27.3288   -8.3222 C   0  0  0  0  0  0  0  0  0  0  0  0
    0.1718   26.7613   -9.1275 C   0  0  0  0  0  0  0  0  0  0  0  0
    0.4741   25.6523   -9.8673 C   0  0  0  0  0  0  0  0  0  0  0  0
    1.7181   25.0737   -9.8368 C   0  0  0  0  0  0  0  0  0  0  0  0
    2.6830   25.6389   -9.0308 C   0  0  0  0  0  0  0  0  0  0  0  0
    3.9904   25.0610   -8.9756 N   0  0  0  0  0  0  0  0  0  0  0  0
    5.4140   26.0226   -9.0315 S   0  0  0  0  0  6  0  0  0  0  0  0
    5.4020   27.1350  -10.4141 C   0  0  0  0  0  0  0  0  0  0  0  0
    5.6084   26.7976   -7.7402 O   0  0  0  0  0  0  0  0  0  0  0  0
    6.6208   25.1410   -9.1735 O   0  0  0  0  0  0  0  0  0  0  0  0
    2.3768   26.7606   -8.2828 C   0  0  0  0  0  0  0  0  0  0  0  0
    1.9142   31.3866   -6.1818 S   0  0  0  0  0  0  0  0  0  0  0  0
    3.1005   32.0086   -5.0968 C   0  0  0  0  0  0  0  0  0  0  0  0
    3.6523   33.3951   -4.9503 C   0  0  0  0  0  0  0  0  0  0  0  0
    5.6094   30.2330   -3.3748 C   0  0  0  0  0  0  0  0  0  0  0  0
    6.5562   30.3102   -2.3671 C   0  0  0  0  0  0  0  0  0  0  0  0
  1  2  1  0
  2  3  1  0
  3  4  2  0
  4  5  1  0
  5  6  2  0
  6  7  1  0
  7  8  1  0
  8  9  2  0
  9 10  1  0
 10 11  1  0
 11 12  2  0
 11 13  1  0
 13 14  2  0
 14 15  1  0
 15 16  2  0
 16 17  1  0
 17 18  1  0
 18 19  1  0
 19 20  1  0
 19 21  2  0
 19 22  2  0
 17 23  2  0
  9 24  1  0
 24 25  1  0
 25 26  1  0
  6 27  1  0
 27 28  2  0
 28  3  1  0
 25  7  2  0
 23 13  1  0
M  END
$$$$
