
     RDKit          3D

 23 25  0  0  0  0  0  0  0  0999 V2000
  157.9238  152.0652  145.6958 C   0  0  0  0  0  0  0  0  0  0  0  0
  156.4897  151.6547  145.9066 C   0  0  0  0  0  0  0  0  0  0  0  0
  156.1699  150.3867  146.3455 C   0  0  0  0  0  0  0  0  0  0  0  0
  154.8350  150.0384  146.5301 C   0  0  0  0  0  0  0  0  0  0  0  0
  153.8204  150.9276  146.2860 C   0  0  0  0  0  0  0  0  0  0  0  0
  152.3861  150.5565  146.4806 C   0  0  0  0  0  0  0  0  0  0  0  0
  151.9323  149.5009  145.6476 N   0  0  0  0  0  0  0  0  0  0  0  0
  152.5144  148.2191  145.8578 C   0  0  0  0  0  0  0  0  0  0  0  0
  152.3320  147.3410  144.6454 C   0  0  0  0  0  0  0  0  0  0  0  0
  151.1098  147.6190  143.9149 N   0  0  0  0  0  0  0  0  0  0  0  0
  150.0107  147.1777  144.7404 C   0  0  0  0  0  0  0  0  0  0  0  0
  148.9348  146.4968  144.0200 C   0  0  0  0  0  0  0  0  0  0  0  0
  148.4152  147.0693  142.8913 C   0  0  0  0  0  0  0  0  0  0  0  0
  147.4134  146.4601  142.2009 C   0  0  0  0  0  0  0  0  0  0  0  0
  146.9215  147.0798  141.0646 O   0  0  0  0  0  0  0  0  0  0  0  0
  146.9169  145.2436  142.6521 C   0  0  0  0  0  0  0  0  0  0  0  0
  147.4333  144.6595  143.7872 C   0  0  0  0  0  0  0  0  0  0  0  0
  148.4471  145.2882  144.4751 C   0  0  0  0  0  0  0  0  0  0  0  0
  149.0115  144.6527  145.7140 C   0  0  0  0  0  0  0  0  0  0  0  0
  150.9981  148.9674  143.4584 C   0  0  0  0  0  0  0  0  0  0  0  0
  151.8895  149.8714  144.2715 C   0  0  0  0  0  0  0  0  0  0  0  0
  154.1384  152.1873  145.8500 C   0  0  0  0  0  0  0  0  0  0  0  0
  155.4576  152.5299  145.6682 C   0  0  0  0  0  0  0  0  0  0  0  0
  1  2  1  0
  2  3  2  0
  3  4  1  0
  4  5  2  0
  5  6  1  0
  6  7  1  0
  7  8  1  0
  8  9  1  0
  9 10  1  0
 10 11  1  0
 11 12  1  0
 12 13  2  0
 13 14  1  0
 14 15  1  0
 14 16  2  0
 16 17  1  0
 17 18  2  0
 18 19  1  0
 10 20  1  0
 20 21  1  0
  5 22  1  0
 22 23  2  0
 23  2  1  0
 21  7  1  0
 18 12  1  0
M  END
$$$$
