
     RDKit          3D

 26 28  0  0  0  0  0  0  0  0999 V2000
   44.5745   29.4453   13.4777 C   0  0  0  0  0  0  0  0  0  0  0  0
   45.7505   29.7658   13.9831 C   0  0  0  0  0  0  0  0  0  0  0  0
   46.0291   31.0843   14.4246 N   0  0  0  0  0  0  0  0  0  0  0  0
   45.6003   31.5208   15.5781 C   0  0  0  0  0  0  0  0  0  0  0  0
   45.0808   30.6257   16.5416 N   0  0  0  0  0  0  0  0  0  0  0  0
   44.6330   31.0013   17.6762 C   0  0  0  0  0  0  0  0  0  0  0  0
   44.6024   32.3782   18.0901 C   0  0  0  0  0  0  0  0  0  0  0  0
   45.1997   33.3431   17.1252 C   0  0  0  0  0  0  0  0  0  0  0  0
   45.3036   34.6145   17.4711 C   0  0  0  0  0  0  0  0  0  0  0  0
   44.9066   35.1091   18.7589 C   0  0  0  0  0  0  0  0  0  0  0  0
   44.4538   34.2693   19.6944 C   0  0  0  0  0  0  0  0  0  0  0  0
   44.0003   34.6888   21.0084 C   0  0  0  0  0  0  0  0  0  0  0  0
   42.7806   35.3349   21.1772 C   0  0  0  0  0  0  0  0  0  0  0  0
   42.2805   35.7144   22.4018 C   0  0  0  0  0  0  0  0  0  0  0  0
   43.0278   35.4422   23.5436 C   0  0  0  0  0  0  0  0  0  0  0  0
   42.3779   35.9319   25.0926 Cl  0  0  0  0  0  0  0  0  0  0  0  0
   44.2433   34.8021   23.4181 C   0  0  0  0  0  0  0  0  0  0  0  0
   44.7020   34.4397   22.1563 C   0  0  0  0  0  0  0  0  0  0  0  0
   44.7980   32.8107   19.4434 C   0  0  0  0  0  0  0  0  0  0  0  0
   45.3222   32.1561   20.4499 C   0  0  0  0  0  0  0  0  0  0  0  0
   45.1168   30.7623   20.8095 C   0  0  0  0  0  0  0  0  0  0  0  0
   43.8848   30.2266   20.7375 C   0  0  0  0  0  0  0  0  0  0  0  0
   43.6036   28.9258   21.2192 C   0  0  0  0  0  0  0  0  0  0  0  0
   43.3551   27.8215   21.6143 C   0  0  0  0  0  0  0  0  0  0  0  0
   42.9926   26.2226   22.1648 Cl  0  0  0  0  0  0  0  0  0  0  0  0
   45.6360   32.8674   15.9033 O   0  0  0  0  0  0  0  0  0  0  0  0
  1  2  2  0
  2  3  1  0
  3  4  2  3
  4  5  1  0
  5  6  2  0
  6  7  1  0
  7  8  1  0
  8  9  2  0
  9 10  1  0
 10 11  2  0
 11 12  1  0
 12 13  2  0
 13 14  1  0
 14 15  2  0
 15 16  1  0
 15 17  1  0
 17 18  2  0
 11 19  1  0
 19 20  2  3
 20 21  1  0
 21 22  2  3
 22 23  1  0
 23 24  3  0
 24 25  1  0
  8 26  1  0
 26  4  1  0
 19  7  1  0
 18 12  1  0
M  END
$$$$
