
     RDKit          3D

 24 26  0  0  0  0  0  0  0  0999 V2000
   15.3740   48.0629    6.0100 C   0  0  0  0  0  0  0  0  0  0  0  0
   13.9703   47.9537    6.4670 C   0  0  0  0  0  0  0  0  0  0  0  0
   13.0072   48.1511    5.6649 O   0  0  0  0  0  0  0  0  0  0  0  0
   13.6958   47.6322    7.7866 O   0  0  0  0  0  0  0  0  0  0  0  0
   14.7127   47.5512    8.7685 C   0  0  0  0  0  0  0  0  0  0  0  0
   14.4632   46.3415    9.6124 C   0  0  0  0  0  0  0  0  0  0  0  0
   14.4594   45.2589    8.9403 O   0  0  0  0  0  0  0  0  0  0  0  0
   14.2406   46.3302   11.0525 C   0  0  0  0  0  0  0  0  0  0  0  0
   13.7180   45.1924   11.6193 C   0  0  0  0  0  0  0  0  0  0  0  0
   13.4027   44.0714   10.8609 O   0  0  0  0  0  0  0  0  0  0  0  0
   13.5224   45.2215   12.9846 C   0  0  0  0  0  0  0  0  0  0  0  0
   13.8453   46.3494   13.7107 C   0  0  0  0  0  0  0  0  0  0  0  0
   13.6657   46.4299   15.0995 O   0  0  0  0  0  0  0  0  0  0  0  0
   14.3691   47.4717   13.0965 C   0  0  0  0  0  0  0  0  0  0  0  0
   14.5830   47.4884   11.7272 C   0  0  0  0  0  0  0  0  0  0  0  0
   15.0914   48.5180   10.9796 O   0  0  0  0  0  0  0  0  0  0  0  0
   14.5638   48.7548    9.6708 C   0  0  1  0  0  0  0  0  0  0  0  0
   15.2236   49.9639    9.0795 C   0  0  0  0  0  0  0  0  0  0  0  0
   16.5483   50.2819    9.3289 C   0  0  0  0  0  0  0  0  0  0  0  0
   17.1451   51.4080    8.7720 C   0  0  0  0  0  0  0  0  0  0  0  0
   16.3965   52.2282    7.9502 C   0  0  0  0  0  0  0  0  0  0  0  0
   17.0669   53.3296    7.4360 O   0  0  0  0  0  0  0  0  0  0  0  0
   15.0627   51.9187    7.6918 C   0  0  0  0  0  0  0  0  0  0  0  0
   14.4750   50.7943    8.2508 C   0  0  0  0  0  0  0  0  0  0  0  0
  1  2  1  0
  2  3  2  0
  2  4  1  0
  4  5  1  0
  5  6  1  0
  6  7  2  0
  6  8  1  0
  8  9  2  0
  9 10  1  0
  9 11  1  0
 11 12  2  0
 12 13  1  0
 12 14  1  0
 14 15  2  0
 15 16  1  0
 16 17  1  0
 17 18  1  6
 18 19  2  0
 19 20  1  0
 20 21  2  0
 21 22  1  0
 21 23  1  0
 23 24  2  0
 17  5  1  0
 24 18  1  0
 15  8  1  0
M  END
$$$$
