
     RDKit          3D

 16 17  0  0  0  0  0  0  0  0999 V2000
  127.6312  141.3409  143.1334 N   0  0  0  0  0  4  0  0  0  0  0  0
  128.2695  140.7319  144.2841 C   0  0  2  0  0  0  0  0  0  0  0  0
  127.8920  139.3315  144.4772 C   0  0  0  0  0  0  0  0  0  0  0  0
  128.0706  138.3605  143.4852 C   0  0  0  0  0  0  0  0  0  0  0  0
  127.6851  137.0838  143.7635 C   0  0  0  0  0  0  0  0  0  0  0  0
  127.1296  136.6601  144.9465 C   0  0  0  0  0  0  0  0  0  0  0  0
  126.7519  135.3445  145.1836 O   0  0  0  0  0  0  0  0  0  0  0  0
  126.9570  137.6375  145.9268 C   0  0  0  0  0  0  0  0  0  0  0  0
  127.3369  138.9427  145.6786 C   0  0  0  0  0  0  0  0  0  0  0  0
  128.0135  141.5311  145.5207 C   0  0  0  0  0  0  0  0  0  0  0  0
  128.7066  141.2875  146.6808 C   0  0  0  0  0  0  0  0  0  0  0  0
  128.4922  142.0122  147.8465 C   0  0  0  0  0  0  0  0  0  0  0  0
  127.5472  143.0094  147.8259 C   0  0  0  0  0  0  0  0  0  0  0  0
  127.2626  143.9943  149.4270 Br  0  0  0  0  0  0  0  0  0  0  0  0
  126.8365  143.2791  146.6831 C   0  0  0  0  0  0  0  0  0  0  0  0
  127.0783  142.5314  145.5317 C   0  0  0  0  0  0  0  0  0  0  0  0
  2  1  1  6
  2  3  1  0
  3  4  2  0
  4  5  1  0
  5  6  2  0
  6  7  1  0
  6  8  1  0
  8  9  2  0
  2 10  1  0
 10 11  2  0
 11 12  1  0
 12 13  2  0
 13 14  1  0
 13 15  1  0
 15 16  2  0
  9  3  1  0
 16 10  1  0
M  CHG  1   1   1
M  END
$$$$
