
     RDKit          3D

 21 23  0  0  0  0  0  0  0  0999 V2000
   16.9755   37.4015   28.8681 C   0  0  0  0  0  0  0  0  0  0  0  0
   16.0964   38.2765   29.4531 O   0  0  0  0  0  0  0  0  0  0  0  0
   16.3469   39.5942   29.1613 C   0  0  0  0  0  0  0  0  0  0  0  0
   15.1091   40.3085   28.7622 C   0  0  0  0  0  0  0  0  0  0  0  0
   14.1708   40.6207   29.7292 C   0  0  0  0  0  0  0  0  0  0  0  0
   13.0364   41.2861   29.3216 C   0  0  0  0  0  0  0  0  0  0  0  0
   12.8534   41.6214   28.0065 C   0  0  0  0  0  0  0  0  0  0  0  0
   13.8054   41.3006   27.0475 C   0  0  0  0  0  0  0  0  0  0  0  0
   13.6608   41.6319   25.6452 C   0  0  0  0  0  0  0  0  0  0  0  0
   14.4834   41.1743   24.7945 O   0  0  0  0  0  0  0  0  0  0  0  0
   12.6229   42.4555   25.1954 N   0  0  0  0  0  0  0  0  0  0  0  0
   12.4754   42.6740   23.7749 C   0  0  0  0  0  0  0  0  0  0  0  0
   11.6648   43.4756   23.1307 N   0  0  0  0  0  0  0  0  0  0  0  0
   11.6941   43.5213   21.8168 C   0  0  0  0  0  0  0  0  0  0  0  0
   10.8892   44.3284   20.9763 C   0  0  0  0  0  0  0  0  0  0  0  0
   11.0464   44.2546   19.6383 C   0  0  0  0  0  0  0  0  0  0  0  0
   11.9388   43.4487   18.9720 C   0  0  0  0  0  0  0  0  0  0  0  0
   12.7314   42.6544   19.7890 C   0  0  0  0  0  0  0  0  0  0  0  0
   12.5924   42.7080   21.1832 C   0  0  0  0  0  0  0  0  0  0  0  0
   13.3433   41.9243   22.5156 S   0  0  0  0  0  0  0  0  0  0  0  0
   14.9443   40.6352   27.4426 C   0  0  0  0  0  0  0  0  0  0  0  0
  1  2  1  0
  2  3  1  0
  3  4  1  0
  4  5  2  0
  5  6  1  0
  6  7  2  0
  7  8  1  0
  8  9  1  0
  9 10  2  0
  9 11  1  0
 11 12  1  0
 12 13  2  0
 13 14  1  0
 14 15  2  0
 15 16  1  0
 16 17  2  0
 17 18  1  0
 18 19  2  0
 19 20  1  0
  8 21  2  0
 21  4  1  0
 20 12  1  0
 19 14  1  0
M  END
$$$$
