
     RDKit          3D

 35 35  0  0  0  0  0  0  0  0999 V2000
   26.6460  -20.2022  -24.6706 C   0  0  0  0  0  0  0  0  0  0  0  0
   25.4881  -20.4888  -23.8470 C   0  0  0  0  0  0  0  0  0  0  0  0
   25.6489  -20.8532  -22.5609 C   0  0  0  0  0  0  0  0  0  0  0  0
   25.4095  -21.8628  -21.6579 C   0  0  0  0  0  0  0  0  0  0  0  0
   25.4363  -22.6145  -20.6417 C   0  0  0  0  0  0  0  0  0  0  0  0
   25.9165  -22.2219  -19.2973 N   0  0  0  0  0  0  0  0  0  0  0  0
   25.1186  -22.1403  -18.2993 C   0  0  0  0  0  0  0  0  0  0  0  0
   24.4976  -22.1028  -17.1507 C   0  0  0  0  0  0  0  0  0  0  0  0
   23.2673  -21.3649  -17.2626 N   0  0  0  0  0  0  0  0  0  0  0  0
   22.3917  -21.1956  -16.3865 C   0  0  0  0  0  0  0  0  0  0  0  0
   21.1109  -20.4385  -16.5771 C   0  0  0  0  0  0  0  0  0  0  0  0
   21.2235  -19.6027  -17.8492 C   0  0  0  0  0  0  0  0  0  0  0  0
   20.6750  -20.4328  -18.9467 N   0  0  0  0  0  0  0  0  0  0  0  0
   21.3773  -20.1102  -20.1844 C   0  0  0  0  0  0  0  0  0  0  0  0
   20.9535  -20.9117  -21.3534 C   0  0  0  0  0  0  0  0  0  0  0  0
   19.7731  -21.6269  -21.0742 O   0  0  0  0  0  0  0  0  0  0  0  0
   19.3040  -21.9855  -22.3315 N   0  0  0  0  0  0  0  0  0  0  0  0
   18.2844  -22.9049  -22.4937 C   0  0  0  0  0  0  0  0  0  0  0  0
   17.0573  -22.7789  -21.4636 C   0  0  0  0  0  0  0  0  0  0  0  0
   17.0559  -23.7191  -20.6232 C   0  0  0  0  0  0  0  0  0  0  0  0
   16.1551  -24.6158  -20.0434 C   0  0  0  0  0  0  0  0  0  0  0  0
   15.5796  -25.5625  -19.5084 C   0  0  0  0  0  0  0  0  0  0  0  0
   14.2921  -25.8914  -20.3563 C   0  0  0  0  0  0  0  0  0  0  0  0
   13.2686  -26.1522  -21.0563 C   0  0  0  0  0  0  0  0  0  0  0  0
   12.1753  -26.4170  -21.8165 C   0  0  0  0  0  0  0  0  0  0  0  0
   11.0351  -27.1067  -21.2060 C   0  0  0  0  0  0  0  0  0  0  0  0
    9.8144  -26.9017  -21.7723 C   0  0  0  0  0  0  0  0  0  0  0  0
    9.5938  -26.1324  -22.8443 C   0  0  0  0  0  0  0  0  0  0  0  0
    7.9703  -25.8677  -23.4453 Cl  0  0  0  0  0  0  0  0  0  0  0  0
   10.6607  -25.4452  -23.5076 C   0  0  0  0  0  0  0  0  0  0  0  0
   10.4296  -24.4479  -24.9056 Cl  0  0  0  0  0  0  0  0  0  0  0  0
   11.8574  -25.6661  -22.9029 C   0  0  0  0  0  0  0  0  0  0  0  0
   18.1901  -23.7235  -23.3547 N   0  0  0  0  0  0  0  0  0  0  0  0
   18.1643  -24.4604  -24.4956 C   0  0  0  0  0  0  0  0  0  0  0  0
   17.9805  -23.6994  -25.8117 C   0  0  0  0  0  0  0  0  0  0  0  0
  1  2  1  0
  2  3  2  0
  3  4  2  0
  4  5  2  0
  5  6  1  0
  6  7  1  0
  7  8  2  3
  8  9  1  0
  9 10  2  3
 10 11  1  0
 11 12  1  0
 12 13  1  0
 13 14  1  0
 14 15  1  0
 15 16  1  0
 16 17  1  0
 17 18  1  0
 18 19  1  0
 19 20  2  3
 20 21  1  0
 21 22  2  3
 22 23  1  0
 23 24  3  0
 24 25  1  0
 25 26  2  0
 26 27  1  0
 27 28  2  0
 28 29  1  0
 28 30  1  0
 30 31  1  0
 30 32  2  0
 18 33  2  3
 33 34  1  0
 34 35  1  0
 32 25  1  0
M  END
$$$$
