
     RDKit          3D

 21 22  0  0  0  0  0  0  0  0999 V2000
  121.0967  132.0579  147.3586 C   0  0  0  0  0  0  0  0  0  0  0  0
  120.6881  133.4966  147.2343 C   0  0  0  0  0  0  0  0  0  0  0  0
  121.5556  134.2443  146.2353 C   0  0  0  0  0  0  0  0  0  0  0  0
  122.8051  134.5391  146.8233 O   0  0  0  0  0  0  0  0  0  0  0  0
  123.8126  135.1218  146.0897 C   0  0  0  0  0  0  0  0  0  0  0  0
  123.9683  134.7275  144.7733 C   0  0  0  0  0  0  0  0  0  0  0  0
  124.9621  135.2881  144.0147 C   0  0  0  0  0  0  0  0  0  0  0  0
  125.8391  136.2604  144.5310 C   0  0  0  0  0  0  0  0  0  0  0  0
  126.8377  136.7660  143.6257 C   0  0  0  0  0  0  0  0  0  0  0  0
  127.8089  137.4704  144.0670 O   0  0  0  0  0  0  0  0  0  0  0  0
  126.8449  136.5485  142.2434 N   0  0  0  0  0  0  0  0  0  0  0  0
  127.9534  136.9934  141.4213 C   0  0  0  0  0  0  0  0  0  0  0  0
  128.8320  138.0127  141.7064 C   0  0  0  0  0  0  0  0  0  0  0  0
  129.7059  138.0605  140.6325 C   0  0  0  0  0  0  0  0  0  0  0  0
  130.8379  139.0498  140.5445 C   0  0  0  0  0  0  0  0  0  0  0  0
  129.3603  137.1408  139.7913 O   0  0  0  0  0  0  0  0  0  0  0  0
  128.3121  136.4934  140.2503 N   0  0  0  0  0  0  0  0  0  0  0  0
  125.6556  136.6275  145.8402 C   0  0  0  0  0  0  0  0  0  0  0  0
  126.4829  137.5710  146.3929 O   0  0  0  0  0  0  0  0  0  0  0  0
  126.4240  138.0804  147.6823 C   0  0  0  0  0  0  0  0  0  0  0  0
  124.6463  136.0693  146.6386 C   0  0  0  0  0  0  0  0  0  0  0  0
  1  2  1  0
  2  3  1  0
  3  4  1  0
  4  5  1  0
  5  6  2  0
  6  7  1  0
  7  8  2  0
  8  9  1  0
  9 10  2  0
  9 11  1  0
 11 12  1  0
 12 13  1  0
 13 14  2  0
 14 15  1  0
 14 16  1  0
 16 17  1  0
  8 18  1  0
 18 19  1  0
 19 20  1  0
 18 21  2  0
 21  5  1  0
 17 12  2  0
M  END
$$$$
