
     RDKit          3D

 30 30  0  0  0  0  0  0  0  0999 V2000
    1.5688   -5.1999  -53.5796 C   0  0  0  0  0  0  0  0  0  0  0  0
    1.5138   -4.5637  -54.9330 C   0  0  0  0  0  0  0  0  0  0  0  0
    1.1176   -5.6174  -55.9319 C   0  0  0  0  0  0  0  0  0  0  0  0
    0.9274   -5.1724  -57.1519 N   0  0  0  0  0  0  0  0  0  0  0  0
    0.6373   -6.0188  -58.1974 C   0  0  0  0  0  0  0  0  0  0  0  0
    1.7105   -6.1664  -59.3011 C   0  0  0  0  0  0  0  0  0  0  0  0
    1.0075   -6.9686  -60.2491 C   0  0  0  0  0  0  0  0  0  0  0  0
    0.3906   -7.6592  -61.0964 C   0  0  0  0  0  0  0  0  0  0  0  0
   -0.3186   -8.4404  -62.0325 C   0  0  0  0  0  0  0  0  0  0  0  0
   -1.7907   -8.1544  -62.1363 C   0  0  0  0  0  0  0  0  0  0  0  0
   -2.6013   -9.1013  -62.3907 N   0  0  0  0  0  0  0  0  0  0  0  0
   -4.0121   -8.9073  -62.5515 C   0  0  0  0  0  0  0  0  0  0  0  0
   -4.7515  -10.0080  -61.8983 C   0  0  0  0  0  0  0  0  0  0  0  0
   -5.3706   -9.9186  -60.7419 C   0  0  0  0  0  0  0  0  0  0  0  0
   -6.7743  -10.2101  -60.6320 C   0  0  0  0  0  0  0  0  0  0  0  0
   -7.4926  -10.0803  -59.5642 C   0  0  0  0  0  0  0  0  0  0  0  0
   -8.3691  -11.1353  -59.0323 C   0  0  0  0  0  0  0  0  0  0  0  0
   -9.1078  -10.7922  -57.8559 N   0  0  0  0  0  0  0  0  0  0  0  0
  -10.4241  -11.3389  -57.8991 C   0  0  0  0  0  0  0  0  0  0  0  0
  -11.4168  -10.4656  -57.2220 C   0  0  0  0  0  0  0  0  0  0  0  0
  -12.3812   -9.9471  -58.1026 O   0  0  0  0  0  0  0  0  0  0  0  0
  -13.3859   -9.3915  -57.3739 N   0  0  0  0  0  0  0  0  0  0  0  0
   -2.2052   -6.7508  -61.9663 C   0  0  0  0  0  0  0  0  0  0  0  0
   -2.0098   -5.8049  -62.9346 C   0  0  0  0  0  0  0  0  0  0  0  0
   -2.4006   -4.5095  -62.8199 C   0  0  0  0  0  0  0  0  0  0  0  0
   -3.0326   -4.1304  -61.6494 C   0  0  0  0  0  0  0  0  0  0  0  0
   -3.5967   -2.4862  -61.3987 Cl  0  0  0  0  0  0  0  0  0  0  0  0
   -3.2533   -5.0343  -60.6420 C   0  0  0  0  0  0  0  0  0  0  0  0
   -4.0635   -4.4864  -59.2011 Cl  0  0  0  0  0  0  0  0  0  0  0  0
   -2.8327   -6.3606  -60.8089 C   0  0  0  0  0  0  0  0  0  0  0  0
  1  2  1  0
  2  3  1  0
  3  4  2  3
  4  5  1  0
  5  6  2  3
  6  7  1  0
  7  8  3  0
  8  9  1  0
  9 10  1  0
 10 11  2  3
 11 12  1  0
 12 13  1  0
 13 14  2  3
 14 15  1  0
 15 16  2  3
 16 17  1  0
 17 18  1  0
 18 19  1  0
 19 20  1  0
 20 21  1  0
 21 22  1  0
 10 23  1  0
 23 24  2  0
 24 25  1  0
 25 26  2  0
 26 27  1  0
 26 28  1  0
 28 29  1  0
 28 30  2  0
 30 23  1  0
M  END
$$$$
