
     RDKit          3D

 30 30  0  0  0  0  0  0  0  0999 V2000
   12.3359   26.3127   -9.2124 C   0  0  0  0  0  0  0  0  0  0  0  0
   11.9762   27.7642   -9.2668 C   0  0  0  0  0  0  0  0  0  0  0  0
   10.7215   27.9680   -8.4610 C   0  0  0  0  0  0  0  0  0  0  0  0
   10.7325   29.0289   -7.6884 N   0  0  0  0  0  0  0  0  0  0  0  0
    9.6849   29.3261   -6.8469 C   0  0  0  0  0  0  0  0  0  0  0  0
    9.8143   30.6057   -5.9881 C   0  0  0  0  0  0  0  0  0  0  0  0
    9.0249   30.2455   -4.8550 C   0  0  0  0  0  0  0  0  0  0  0  0
    8.3408   29.9113   -3.8573 C   0  0  0  0  0  0  0  0  0  0  0  0
    7.5651   29.5164   -2.7472 C   0  0  0  0  0  0  0  0  0  0  0  0
    6.7237   30.5952   -2.1247 C   0  0  0  0  0  0  0  0  0  0  0  0
    5.5982   30.8929   -2.6378 N   0  0  0  0  0  0  0  0  0  0  0  0
    4.5998   29.9178   -2.9642 C   0  0  0  0  0  0  0  0  0  0  0  0
    3.4157   30.5827   -3.5480 C   0  0  0  0  0  0  0  0  0  0  0  0
    3.2241   30.7906   -4.8319 C   0  0  0  0  0  0  0  0  0  0  0  0
    2.0223   30.3413   -5.4809 C   0  0  0  0  0  0  0  0  0  0  0  0
    1.7571   30.4511   -6.7421 C   0  0  0  0  0  0  0  0  0  0  0  0
    0.7628   29.6261   -7.4458 C   0  0  0  0  0  0  0  0  0  0  0  0
    1.2945   28.5939   -8.2819 N   0  0  0  0  0  0  0  0  0  0  0  0
    0.2503   27.8626   -8.9209 C   0  0  0  0  0  0  0  0  0  0  0  0
    0.5119   26.4005   -8.9271 C   0  0  0  0  0  0  0  0  0  0  0  0
    1.3656   25.9920   -7.8884 O   0  0  0  0  0  0  0  0  0  0  0  0
    1.5142   24.6418   -7.9491 N   0  0  0  0  0  0  0  0  0  0  0  0
    7.2896   31.2797   -0.9491 C   0  0  0  0  0  0  0  0  0  0  0  0
    6.8310   32.4925   -0.5142 C   0  0  0  0  0  0  0  0  0  0  0  0
    7.3136   33.1389    0.5782 C   0  0  0  0  0  0  0  0  0  0  0  0
    8.3318   32.5286    1.2882 C   0  0  0  0  0  0  0  0  0  0  0  0
    9.0201   33.2642    2.7268 Cl  0  0  0  0  0  0  0  0  0  0  0  0
    8.8343   31.3137    0.8979 C   0  0  0  0  0  0  0  0  0  0  0  0
   10.1094   30.6021    1.8466 Cl  0  0  0  0  0  0  0  0  0  0  0  0
    8.3014   30.6855   -0.2358 C   0  0  0  0  0  0  0  0  0  0  0  0
  1  2  1  0
  2  3  1  0
  3  4  2  3
  4  5  1  0
  5  6  2  3
  6  7  1  0
  7  8  3  0
  8  9  1  0
  9 10  1  0
 10 11  2  3
 11 12  1  0
 12 13  1  0
 13 14  2  3
 14 15  1  0
 15 16  2  3
 16 17  1  0
 17 18  1  0
 18 19  1  0
 19 20  1  0
 20 21  1  0
 21 22  1  0
 10 23  1  0
 23 24  2  0
 24 25  1  0
 25 26  2  0
 26 27  1  0
 26 28  1  0
 28 29  1  0
 28 30  2  0
 30 23  1  0
M  END
$$$$
