
     RDKit          3D

 30 30  0  0  0  0  0  0  0  0999 V2000
    1.5345   -4.5541  -53.5886 C   0  0  0  0  0  0  0  0  0  0  0  0
    1.7032   -4.1645  -55.0236 C   0  0  0  0  0  0  0  0  0  0  0  0
    1.3711   -5.3589  -55.8769 C   0  0  0  0  0  0  0  0  0  0  0  0
    1.4718   -5.1542  -57.1694 N   0  0  0  0  0  0  0  0  0  0  0  0
    1.2005   -6.1446  -58.0855 C   0  0  0  0  0  0  0  0  0  0  0  0
    1.5729   -5.8602  -59.5593 C   0  0  0  0  0  0  0  0  0  0  0  0
    0.6602   -6.7245  -60.2350 C   0  0  0  0  0  0  0  0  0  0  0  0
   -0.1362   -7.4771  -60.8470 C   0  0  0  0  0  0  0  0  0  0  0  0
   -1.0450   -8.3046  -61.5392 C   0  0  0  0  0  0  0  0  0  0  0  0
   -2.4596   -7.8014  -61.6094 C   0  0  0  0  0  0  0  0  0  0  0  0
   -3.3982   -8.5989  -61.9279 N   0  0  0  0  0  0  0  0  0  0  0  0
   -4.7854   -8.2429  -61.8740 C   0  0  0  0  0  0  0  0  0  0  0  0
   -5.0412   -7.3827  -60.6995 C   0  0  0  0  0  0  0  0  0  0  0  0
   -6.0709   -7.4980  -59.8902 C   0  0  0  0  0  0  0  0  0  0  0  0
   -7.2124   -6.6334  -60.0207 C   0  0  0  0  0  0  0  0  0  0  0  0
   -8.1610   -6.4965  -59.1522 C   0  0  0  0  0  0  0  0  0  0  0  0
   -8.3451   -5.2965  -58.3213 C   0  0  0  0  0  0  0  0  0  0  0  0
   -9.4326   -5.3468  -57.3928 N   0  0  0  0  0  0  0  0  0  0  0  0
   -9.5416   -4.1261  -56.6638 C   0  0  0  0  0  0  0  0  0  0  0  0
  -10.7693   -3.3688  -57.0180 C   0  0  0  0  0  0  0  0  0  0  0  0
  -10.5687   -2.4620  -58.0725 O   0  0  0  0  0  0  0  0  0  0  0  0
  -11.7224   -1.7741  -58.2839 N   0  0  0  0  0  0  0  0  0  0  0  0
   -2.6668   -6.3695  -61.3308 C   0  0  0  0  0  0  0  0  0  0  0  0
   -3.0659   -5.9098  -60.1062 C   0  0  0  0  0  0  0  0  0  0  0  0
   -3.2430   -4.5966  -59.8094 C   0  0  0  0  0  0  0  0  0  0  0  0
   -3.0051   -3.6736  -60.8118 C   0  0  0  0  0  0  0  0  0  0  0  0
   -3.1849   -1.9485  -60.5362 Cl  0  0  0  0  0  0  0  0  0  0  0  0
   -2.6059   -4.0755  -62.0607 C   0  0  0  0  0  0  0  0  0  0  0  0
   -2.3161   -2.8558  -63.2694 Cl  0  0  0  0  0  0  0  0  0  0  0  0
   -2.4353   -5.4426  -62.3172 C   0  0  0  0  0  0  0  0  0  0  0  0
  1  2  1  0
  2  3  1  0
  3  4  2  3
  4  5  1  0
  5  6  2  3
  6  7  1  0
  7  8  3  0
  8  9  1  0
  9 10  1  0
 10 11  2  3
 11 12  1  0
 12 13  1  0
 13 14  2  3
 14 15  1  0
 15 16  2  3
 16 17  1  0
 17 18  1  0
 18 19  1  0
 19 20  1  0
 20 21  1  0
 21 22  1  0
 10 23  1  0
 23 24  2  0
 24 25  1  0
 25 26  2  0
 26 27  1  0
 26 28  1  0
 28 29  1  0
 28 30  2  0
 30 23  1  0
M  END
$$$$
