
     RDKit          3D

 30 30  0  0  0  0  0  0  0  0999 V2000
  -10.5131   -2.8723  -56.5214 C   0  0  0  0  0  0  0  0  0  0  0  0
  -10.6061   -3.3671  -57.9306 C   0  0  0  0  0  0  0  0  0  0  0  0
   -9.2902   -3.1002  -58.6103 C   0  0  0  0  0  0  0  0  0  0  0  0
   -8.4791   -4.1309  -58.6586 N   0  0  0  0  0  0  0  0  0  0  0  0
   -7.2700   -4.0743  -59.3133 C   0  0  0  0  0  0  0  0  0  0  0  0
   -6.4217   -5.3672  -59.3359 C   0  0  0  0  0  0  0  0  0  0  0  0
   -5.2196   -4.8853  -59.9353 C   0  0  0  0  0  0  0  0  0  0  0  0
   -4.1661   -4.4431  -60.4548 C   0  0  0  0  0  0  0  0  0  0  0  0
   -2.9885   -3.9552  -61.0590 C   0  0  0  0  0  0  0  0  0  0  0  0
   -1.7989   -4.8721  -60.9996 C   0  0  0  0  0  0  0  0  0  0  0  0
   -0.7241   -4.4765  -60.4457 N   0  0  0  0  0  0  0  0  0  0  0  0
    0.2194   -5.3655  -59.8346 C   0  0  0  0  0  0  0  0  0  0  0  0
    1.3587   -4.5971  -59.2900 C   0  0  0  0  0  0  0  0  0  0  0  0
    1.4376   -4.1336  -58.0623 C   0  0  0  0  0  0  0  0  0  0  0  0
    1.6668   -5.0188  -56.9527 C   0  0  0  0  0  0  0  0  0  0  0  0
    2.3085   -4.7234  -55.8692 C   0  0  0  0  0  0  0  0  0  0  0  0
    1.7441   -4.8640  -54.5178 C   0  0  0  0  0  0  0  0  0  0  0  0
    2.3114   -4.0121  -53.5179 N   0  0  0  0  0  0  0  0  0  0  0  0
    1.9004   -4.4100  -52.2117 C   0  0  0  0  0  0  0  0  0  0  0  0
    1.2963   -3.2885  -51.4478 C   0  0  0  0  0  0  0  0  0  0  0  0
    0.2624   -2.6432  -52.1470 O   0  0  0  0  0  0  0  0  0  0  0  0
   -0.4700   -1.9094  -51.2671 N   0  0  0  0  0  0  0  0  0  0  0  0
   -1.9492   -6.1926  -61.6357 C   0  0  0  0  0  0  0  0  0  0  0  0
   -1.2573   -6.5490  -62.7603 C   0  0  0  0  0  0  0  0  0  0  0  0
   -1.3544   -7.7647  -63.3576 C   0  0  0  0  0  0  0  0  0  0  0  0
   -2.2080   -8.6931  -62.7897 C   0  0  0  0  0  0  0  0  0  0  0  0
   -2.3995  -10.3024  -63.4664 Cl  0  0  0  0  0  0  0  0  0  0  0  0
   -2.9303   -8.3916  -61.6636 C   0  0  0  0  0  0  0  0  0  0  0  0
   -3.9775   -9.6143  -60.9998 Cl  0  0  0  0  0  0  0  0  0  0  0  0
   -2.7941   -7.1233  -61.0830 C   0  0  0  0  0  0  0  0  0  0  0  0
  1  2  1  0
  2  3  1  0
  3  4  2  3
  4  5  1  0
  5  6  2  3
  6  7  1  0
  7  8  3  0
  8  9  1  0
  9 10  1  0
 10 11  2  3
 11 12  1  0
 12 13  1  0
 13 14  2  3
 14 15  1  0
 15 16  2  3
 16 17  1  0
 17 18  1  0
 18 19  1  0
 19 20  1  0
 20 21  1  0
 21 22  1  0
 10 23  1  0
 23 24  2  0
 24 25  1  0
 25 26  2  0
 26 27  1  0
 26 28  1  0
 28 29  1  0
 28 30  2  0
 30 23  1  0
M  END
$$$$
