
     RDKit          3D

 21 23  0  0  0  0  0  0  0  0999 V2000
  -11.5328   -6.2071  -56.3027 C   0  0  0  0  0  0  0  0  0  0  0  0
  -10.4682   -6.9875  -56.9352 N   0  0  0  0  0  4  0  0  0  0  0  0
   -9.2227   -6.8287  -56.2463 C   0  0  0  0  0  0  0  0  0  0  0  0
   -8.2022   -6.0970  -57.0354 C   0  0  0  0  0  0  0  0  0  0  0  0
   -8.0157   -4.7350  -56.8665 C   0  0  0  0  0  0  0  0  0  0  0  0
   -7.0747   -4.0343  -57.5879 C   0  0  0  0  0  0  0  0  0  0  0  0
   -6.2728   -4.6674  -58.5163 C   0  0  0  0  0  0  0  0  0  0  0  0
   -6.4345   -6.0159  -58.7048 C   0  0  0  0  0  0  0  0  0  0  0  0
   -5.6170   -6.7358  -59.6487 N   0  0  0  0  0  0  0  0  0  0  0  0
   -4.2611   -6.4903  -59.8568 C   0  0  0  0  0  0  0  0  0  0  0  0
   -3.6040   -5.4630  -59.1862 C   0  0  0  0  0  0  0  0  0  0  0  0
   -2.2693   -5.1866  -59.3905 C   0  0  0  0  0  0  0  0  0  0  0  0
   -1.5912   -5.9403  -60.2671 N   0  0  0  0  0  0  0  0  0  0  0  0
   -2.1740   -6.9403  -60.9378 C   0  0  0  0  0  0  0  0  0  0  0  0
   -1.4279   -7.6777  -61.8230 C   0  0  0  0  0  0  0  0  0  0  0  0
   -1.9661   -8.7190  -62.5450 C   0  0  0  0  0  0  0  0  0  0  0  0
   -3.2899   -9.0043  -62.3525 C   0  0  0  0  0  0  0  0  0  0  0  0
   -4.0569  -10.3175  -63.2338 Cl  0  0  0  0  0  0  0  0  0  0  0  0
   -4.0553   -8.2786  -61.4710 C   0  0  0  0  0  0  0  0  0  0  0  0
   -3.5138   -7.2405  -60.7528 C   0  0  0  0  0  0  0  0  0  0  0  0
   -7.3837   -6.6950  -57.9704 C   0  0  0  0  0  0  0  0  0  0  0  0
  1  2  1  0
  2  3  1  0
  3  4  1  0
  4  5  2  0
  5  6  1  0
  6  7  2  0
  7  8  1  0
  8  9  1  0
  9 10  1  0
 10 11  2  0
 11 12  1  0
 12 13  2  0
 13 14  1  0
 14 15  2  0
 15 16  1  0
 16 17  2  0
 17 18  1  0
 17 19  1  0
 19 20  2  0
  8 21  2  0
 21  4  1  0
 20 10  1  0
 20 14  1  0
M  CHG  1   2   1
M  END
$$$$
