
     RDKit          3D

 21 23  0  0  0  0  0  0  0  0999 V2000
   11.4178   26.6146   -8.5610 C   0  0  0  0  0  0  0  0  0  0  0  0
   11.0280   27.9377   -8.0714 N   0  0  0  0  0  4  0  0  0  0  0  0
    9.6075   28.0433   -7.9228 C   0  0  0  0  0  0  0  0  0  0  0  0
    9.1808   28.3369   -6.5331 C   0  0  0  0  0  0  0  0  0  0  0  0
   10.0331   28.1100   -5.4653 C   0  0  0  0  0  0  0  0  0  0  0  0
    9.6590   28.3746   -4.1664 C   0  0  0  0  0  0  0  0  0  0  0  0
    8.4082   28.8809   -3.8749 C   0  0  0  0  0  0  0  0  0  0  0  0
    7.5427   29.1162   -4.9120 C   0  0  0  0  0  0  0  0  0  0  0  0
    6.2289   29.6583   -4.6729 N   0  0  0  0  0  0  0  0  0  0  0  0
    5.0766   29.2388   -5.3351 C   0  0  0  0  0  0  0  0  0  0  0  0
    5.0027   27.9804   -5.9249 C   0  0  0  0  0  0  0  0  0  0  0  0
    3.8828   27.5506   -6.6035 C   0  0  0  0  0  0  0  0  0  0  0  0
    2.8349   28.3816   -6.6912 N   0  0  0  0  0  0  0  0  0  0  0  0
    2.8530   29.6013   -6.1420 C   0  0  0  0  0  0  0  0  0  0  0  0
    1.7493   30.4079   -6.2651 C   0  0  0  0  0  0  0  0  0  0  0  0
    1.7028   31.6732   -5.7245 C   0  0  0  0  0  0  0  0  0  0  0  0
    2.8075   32.1131   -5.0486 C   0  0  0  0  0  0  0  0  0  0  0  0
    2.8328   33.7157   -4.3272 Cl  0  0  0  0  0  0  0  0  0  0  0  0
    3.9234   31.3217   -4.9135 C   0  0  0  0  0  0  0  0  0  0  0  0
    3.9650   30.0598   -5.4546 C   0  0  0  0  0  0  0  0  0  0  0  0
    7.9409   28.8429   -6.2036 C   0  0  0  0  0  0  0  0  0  0  0  0
  1  2  1  0
  2  3  1  0
  3  4  1  0
  4  5  2  0
  5  6  1  0
  6  7  2  0
  7  8  1  0
  8  9  1  0
  9 10  1  0
 10 11  2  0
 11 12  1  0
 12 13  2  0
 13 14  1  0
 14 15  2  0
 15 16  1  0
 16 17  2  0
 17 18  1  0
 17 19  1  0
 19 20  2  0
  8 21  2  0
 21  4  1  0
 20 10  1  0
 20 14  1  0
M  CHG  1   2   1
M  END
$$$$
