
     RDKit          3D

 28 30  0  0  0  0  0  0  0  0999 V2000
  157.2454  156.7533  152.4579 C   0  0  0  0  0  0  0  0  0  0  0  0
  156.6746  155.4095  152.1516 C   0  0  0  0  0  0  0  0  0  0  0  0
  155.2777  155.3470  152.1080 O   0  0  0  0  0  0  0  0  0  0  0  0
  154.5301  154.7942  151.0895 C   0  0  0  0  0  0  0  0  0  0  0  0
  153.1767  154.9787  151.0409 C   0  0  0  0  0  0  0  0  0  0  0  0
  152.4591  154.4116  150.0061 C   0  0  0  0  0  0  0  0  0  0  0  0
  153.0582  153.6646  149.0185 C   0  0  0  0  0  0  0  0  0  0  0  0
  152.2582  153.0588  147.9049 C   0  0  0  0  0  0  0  0  0  0  0  0
  152.8203  152.4293  146.9010 N   0  0  0  0  0  0  0  0  0  0  0  0
  152.0683  151.9146  145.9471 C   0  0  0  0  0  0  0  0  0  0  0  0
  152.4772  151.1896  144.7645 N   0  0  0  0  0  0  0  0  0  0  0  0
  151.4456  150.6123  143.9924 C   0  0  0  0  0  0  0  0  0  0  0  0
  150.2259  150.8470  144.2713 O   0  0  0  0  0  0  0  0  0  0  0  0
  151.7105  149.7412  142.8664 C   0  0  0  0  0  0  0  0  0  0  0  0
  150.9577  149.7870  141.6954 C   0  0  0  0  0  0  0  0  0  0  0  0
  151.2404  148.9331  140.6299 C   0  0  0  0  0  0  0  0  0  0  0  0
  152.2608  148.0295  140.7036 C   0  0  0  0  0  0  0  0  0  0  0  0
  152.5521  147.1618  139.6277 N   0  0  0  0  0  0  0  0  0  0  0  0
  152.1288  147.5141  138.3230 C   0  0  0  0  0  0  0  0  0  0  0  0
  152.4308  146.7159  137.1830 N   0  0  0  0  0  0  0  0  0  0  0  0
  151.4704  148.5539  138.1559 O   0  0  0  0  0  0  0  0  0  0  0  0
  152.9965  147.9888  141.8555 C   0  0  0  0  0  0  0  0  0  0  0  0
  152.7389  148.8247  142.9303 C   0  0  0  0  0  0  0  0  0  0  0  0
  150.4916  152.3157  146.4527 S   0  0  0  0  0  0  0  0  0  0  0  0
  150.8851  153.1407  147.8926 C   0  0  0  0  0  0  0  0  0  0  0  0
  149.9927  153.7980  148.9075 C   0  0  0  0  0  0  0  0  0  0  0  0
  154.4062  153.4863  149.0754 C   0  0  0  0  0  0  0  0  0  0  0  0
  155.1606  154.0355  150.0919 C   0  0  0  0  0  0  0  0  0  0  0  0
  1  2  1  0
  2  3  1  0
  3  4  1  0
  4  5  2  0
  5  6  1  0
  6  7  2  0
  7  8  1  0
  8  9  1  0
  9 10  2  0
 10 11  1  0
 11 12  1  0
 12 13  2  0
 12 14  1  0
 14 15  2  0
 15 16  1  0
 16 17  2  0
 17 18  1  0
 18 19  1  0
 19 20  1  0
 19 21  2  0
 17 22  1  0
 22 23  2  0
 10 24  1  0
 24 25  1  0
 25 26  1  0
  7 27  1  0
 27 28  2  0
 28  4  1  0
 25  8  2  0
 23 14  1  0
M  END
$$$$
