
     RDKit          3D

 25 26  0  0  0  0  0  0  0  0999 V2000
  154.2840  153.3910  167.7791 C   0  0  0  0  0  0  0  0  0  0  0  0
  153.1497  152.5253  168.2812 C   0  0  0  0  0  0  0  0  0  0  0  0
  151.5422  153.2567  167.8784 P   0  0  0  0  0  2  0  0  0  0  0  0
  150.8143  152.4777  166.4872 N   0  0  0  0  0  0  0  0  0  0  0  0
  149.8630  153.2853  165.9048 O   0  0  0  0  0  0  0  0  0  0  0  0
  149.2804  152.9698  164.6844 C   0  0  0  0  0  0  0  0  0  0  0  0
  148.4606  153.8082  164.1680 N   0  0  0  0  0  0  0  0  0  0  0  0
  148.0062  153.7029  162.8362 C   0  0  0  0  0  0  0  0  0  0  0  0
  148.4677  155.0186  161.7304 B   0  0  0  0  0  2  0  0  0  0  0  0
  148.5580  156.3665  160.7558 N   0  0  0  0  0  0  0  0  0  0  0  0
  148.7950  156.1732  159.3475 C   0  0  0  0  0  0  0  0  0  0  0  0
  149.6519  156.9792  158.6360 C   0  0  0  0  0  0  0  0  0  0  0  0
  149.8698  156.7836  157.2887 C   0  0  0  0  0  0  0  0  0  0  0  0
  149.2201  155.7585  156.6231 C   0  0  0  0  0  0  0  0  0  0  0  0
  149.4736  155.4866  154.9270 Cl  0  0  0  0  0  0  0  0  0  0  0  0
  148.3475  154.9244  157.3086 C   0  0  0  0  0  0  0  0  0  0  0  0
  147.5417  153.6364  156.4346 Cl  0  0  0  0  0  0  0  0  0  0  0  0
  148.1654  155.1605  158.6459 C   0  0  0  0  0  0  0  0  0  0  0  0
  147.3077  152.7150  162.4699 N   0  0  0  0  0  0  0  0  0  0  0  0
  146.5883  152.6529  161.2444 C   0  0  0  0  0  0  0  0  0  0  0  0
  147.3077  152.4252  160.0976 C   0  0  0  0  0  0  0  0  0  0  0  0
  146.6969  152.3493  158.8665 C   0  0  0  0  0  0  0  0  0  0  0  0
  145.3214  152.5074  158.7891 C   0  0  0  0  0  0  0  0  0  0  0  0
  144.6187  152.7330  159.9354 C   0  0  0  0  0  0  0  0  0  0  0  0
  145.2295  152.8090  161.1663 C   0  0  0  0  0  0  0  0  0  0  0  0
  1  2  1  0
  2  3  1  0
  3  4  1  0
  4  5  1  0
  5  6  1  0
  6  7  2  3
  7  8  1  0
  8  9  1  0
  9 10  1  0
 10 11  1  0
 11 12  2  0
 12 13  1  0
 13 14  2  0
 14 15  1  0
 14 16  1  0
 16 17  1  0
 16 18  2  0
  8 19  2  3
 19 20  1  0
 20 21  2  0
 21 22  1  0
 22 23  2  0
 23 24  1  0
 24 25  2  0
 18 11  1  0
 25 20  1  0
M  CHG  2   3  -1   9   1
M  END
$$$$
