
     RDKit          3D

 25 26  0  0  0  0  0  0  0  0999 V2000
  150.6265  153.5778  165.8874 C   0  0  0  0  0  0  0  0  0  0  0  0
  149.1931  153.7301  165.4289 C   0  0  0  0  0  0  0  0  0  0  0  0
  149.0282  155.0869  164.2403 P   0  0  0  0  0  2  0  0  0  0  0  0
  149.5552  154.6044  162.6398 N   0  0  0  0  0  0  0  0  0  0  0  0
  149.7635  155.7002  161.8322 O   0  0  0  0  0  0  0  0  0  0  0  0
  150.2186  155.5732  160.5264 C   0  0  0  0  0  0  0  0  0  0  0  0
  150.2160  156.6136  159.7785 N   0  0  0  0  0  0  0  0  0  0  0  0
  150.4911  156.5545  158.3957 C   0  0  0  0  0  0  0  0  0  0  0  0
  149.7936  155.1826  157.5023 B   0  0  0  0  0  2  0  0  0  0  0  0
  149.1239  153.7434  156.9973 N   0  0  0  0  0  0  0  0  0  0  0  0
  147.8207  153.3865  157.4982 C   0  0  0  0  0  0  0  0  0  0  0  0
  146.9987  152.5102  156.8300 C   0  0  0  0  0  0  0  0  0  0  0  0
  145.7538  152.1770  157.3203 C   0  0  0  0  0  0  0  0  0  0  0  0
  145.3069  152.7275  158.5091 C   0  0  0  0  0  0  0  0  0  0  0  0
  143.7444  152.3279  159.1523 Cl  0  0  0  0  0  0  0  0  0  0  0  0
  146.1093  153.6162  159.2115 C   0  0  0  0  0  0  0  0  0  0  0  0
  145.5119  154.2944  160.7133 Cl  0  0  0  0  0  0  0  0  0  0  0  0
  147.3373  153.9146  158.6822 C   0  0  0  0  0  0  0  0  0  0  0  0
  151.1998  157.4425  157.8412 N   0  0  0  0  0  0  0  0  0  0  0  0
  151.2821  157.6391  156.4349 C   0  0  0  0  0  0  0  0  0  0  0  0
  151.9498  156.6910  155.7001 C   0  0  0  0  0  0  0  0  0  0  0  0
  152.0799  156.7975  154.3340 C   0  0  0  0  0  0  0  0  0  0  0  0
  151.5210  157.8911  153.6900 C   0  0  0  0  0  0  0  0  0  0  0  0
  150.8606  158.8255  154.4314 C   0  0  0  0  0  0  0  0  0  0  0  0
  150.7305  158.7188  155.7973 C   0  0  0  0  0  0  0  0  0  0  0  0
  1  2  1  0
  2  3  1  0
  3  4  1  0
  4  5  1  0
  5  6  1  0
  6  7  2  3
  7  8  1  0
  8  9  1  0
  9 10  1  0
 10 11  1  0
 11 12  2  0
 12 13  1  0
 13 14  2  0
 14 15  1  0
 14 16  1  0
 16 17  1  0
 16 18  2  0
  8 19  2  3
 19 20  1  0
 20 21  2  0
 21 22  1  0
 22 23  2  0
 23 24  1  0
 24 25  2  0
 18 11  1  0
 25 20  1  0
M  CHG  2   3  -1   9   1
M  END
$$$$
