
     RDKit          3D

 22 24  0  0  0  0  0  0  0  0999 V2000
   -2.8194   -0.7032  -60.0170 Cl  0  0  0  0  0  0  0  0  0  0  0  0
   -1.5600   -1.8150  -59.6274 C   0  0  0  0  0  0  0  0  0  0  0  0
   -1.1565   -2.0735  -58.3183 C   0  0  0  0  0  0  0  0  0  0  0  0
   -0.1319   -2.9623  -58.0335 C   0  0  0  0  0  0  0  0  0  0  0  0
    0.5806   -3.6444  -58.9862 C   0  0  0  0  0  0  0  0  0  0  0  0
    0.1715   -3.4206  -60.2658 C   0  0  0  0  0  0  0  0  0  0  0  0
   -0.8534   -2.5326  -60.5842 C   0  0  0  0  0  0  0  0  0  0  0  0
    0.3813   -4.3680  -61.3755 N   0  0  0  0  0  0  0  0  0  0  0  0
    0.1517   -5.8497  -61.1160 C   0  0  0  0  0  0  0  0  0  0  0  0
   -1.2366   -6.1738  -61.4751 C   0  0  0  0  0  0  0  0  0  0  0  0
   -1.9349   -7.2562  -61.4600 C   0  0  0  0  0  0  0  0  0  0  0  0
   -1.6040   -8.6439  -61.0618 C   0  0  0  0  0  0  0  0  0  0  0  0
   -2.0711   -9.7950  -62.3805 Cl  0  0  0  0  0  0  0  0  0  0  0  0
   -2.4405   -9.0388  -59.9836 O   0  0  0  0  0  0  0  0  0  0  0  0
   -1.6557   -9.7919  -59.1313 C   0  0  0  0  0  0  0  0  0  0  0  0
   -0.5573   -8.9057  -58.5963 C   0  0  0  0  0  0  0  0  0  0  0  0
   -1.0514   -7.5454  -58.5366 N   0  0  0  0  0  0  0  0  0  0  0  0
   -0.1508   -6.3675  -58.5773 C   0  0  0  0  0  0  0  0  0  0  0  0
   -0.1147   -5.6069  -57.6197 N   0  0  0  0  0  0  0  0  0  0  0  0
   -0.2659   -4.9225  -56.4261 C   0  0  0  0  0  0  0  0  0  0  0  0
   -0.2277   -3.4315  -56.6389 N   0  0  0  0  0  0  0  0  0  0  0  0
    0.6943   -6.3112  -59.8400 C   0  0  0  0  0  0  0  0  0  0  0  0
  1  2  1  0
  2  3  2  0
  3  4  1  0
  4  5  2  0
  5  6  1  0
  6  7  2  0
  6  8  1  0
  8  9  1  0
  9 10  1  0
 10 11  2  0
 11 12  1  0
 12 13  1  0
 12 14  1  0
 14 15  1  0
 15 16  1  0
 16 17  1  0
 17 18  1  0
 18 19  2  0
 19 20  1  0
 20 21  1  0
 18 22  1  0
  7  2  1  0
 22  9  1  0
 21  4  1  0
M  END
$$$$
