
     RDKit          3D

 15 15  0  0  0  0  0  0  0  0999 V2000
  159.9208  150.8101  174.2444 C   0  0  0  0  0  0  0  0  0  0  0  0
  158.6413  151.0307  175.0120 C   0  0  0  0  0  0  0  0  0  0  0  0
  158.1165  149.6528  175.3985 C   0  0  0  0  0  0  0  0  0  0  0  0
  157.6705  151.7443  174.0987 C   0  0  0  0  0  0  0  0  0  0  0  0
  157.0564  150.8567  173.1461 N   0  0  0  0  0  0  0  0  0  0  0  0
  156.4287  151.2309  172.1042 C   0  0  0  0  0  0  0  0  0  0  0  0
  156.2917  152.6414  171.8244 N   0  0  0  0  0  0  0  0  0  0  0  0
  155.8904  150.2498  171.2469 N   0  0  0  0  0  0  0  0  0  0  0  0
  155.3915  150.5741  169.9828 C   0  0  0  0  0  0  0  0  0  0  0  0
  156.1881  150.2648  168.8658 C   0  0  0  0  0  0  0  0  0  0  0  0
  155.7920  150.5489  167.5832 C   0  0  0  0  0  0  0  0  0  0  0  0
  154.5700  151.1588  167.3866 C   0  0  0  0  0  0  0  0  0  0  0  0
  153.7519  151.4827  168.4482 C   0  0  0  0  0  0  0  0  0  0  0  0
  152.5103  152.1018  168.2566 O   0  0  0  0  0  0  0  0  0  0  0  0
  154.1933  151.1759  169.7402 C   0  0  0  0  0  0  0  0  0  0  0  0
  1  2  1  0
  2  3  1  0
  2  4  1  0
  4  5  1  0
  5  6  2  3
  6  7  1  0
  6  8  1  0
  8  9  1  0
  9 10  2  0
 10 11  1  0
 11 12  2  0
 12 13  1  0
 13 14  1  0
 13 15  2  0
 15  9  1  0
M  END
$$$$
