
     RDKit          3D

 17 16  0  0  0  0  0  0  0  0999 V2000
    0.0249   -5.4488  -58.7033 Br  0  0  0  0  0  0  0  0  0  0  0  0
    0.1534   -5.3001  -52.7899 C   0  0  0  0  0  0  0  0  0  0  0  0
    1.1693   -5.1313  -53.7255 O   0  0  0  0  0  0  0  0  0  0  0  0
    0.7207   -5.3685  -55.0243 C   0  0  0  0  0  0  0  0  0  0  0  0
    1.4857   -6.4566  -55.7042 C   0  0  0  0  0  0  0  0  0  0  0  0
    0.8465   -4.0850  -55.8047 C   0  0  0  0  0  0  0  0  0  0  0  0
    0.4068   -4.1949  -57.1649 N   0  0  0  0  0  0  0  0  0  0  0  0
    1.2538   -3.9594  -58.1027 C   0  0  0  0  0  0  0  0  0  0  0  0
    2.6133   -3.5945  -57.8171 N   0  0  0  0  0  0  0  0  0  0  0  0
    0.8261   -4.0501  -59.4425 N   0  0  0  0  0  0  0  0  0  0  0  0
   -0.0150   -5.1034  -59.8717 C   0  0  0  0  0  0  0  0  0  0  0  0
   -0.4294   -6.1558  -59.1185 C   0  0  0  0  0  0  0  0  0  0  0  0
   -1.2624   -7.1626  -59.5913 C   0  0  0  0  0  0  0  0  0  0  0  0
   -1.6961   -7.0946  -60.8992 C   0  0  0  0  0  0  0  0  0  0  0  0
   -1.3066   -6.0507  -61.7055 C   0  0  0  0  0  0  0  0  0  0  0  0
   -1.7880   -5.9912  -63.1288 C   0  0  0  0  0  0  0  0  0  0  0  0
   -0.4788   -5.0734  -61.1941 C   0  0  0  0  0  0  0  0  0  0  0  0
  2  3  1  0
  3  4  1  0
  4  5  1  0
  4  6  1  0
  6  7  1  0
  7  8  2  3
  8  9  1  0
  8 10  1  0
 10 11  1  0
 11 12  2  0
 12 13  1  0
 13 14  2  0
 14 15  1  0
 15 16  1  0
 15 17  2  0
 17 11  1  0
M  END
$$$$
