
     RDKit          3D

 22 24  0  0  0  0  0  0  0  0999 V2000
    1.8947   33.9196   -1.6274 Cl  0  0  0  0  0  0  0  0  0  0  0  0
    2.3196   32.7679   -2.8724 C   0  0  0  0  0  0  0  0  0  0  0  0
    2.0293   32.9627   -4.1875 C   0  0  0  0  0  0  0  0  0  0  0  0
    2.3520   32.0740   -5.1838 C   0  0  0  0  0  0  0  0  0  0  0  0
    3.0185   30.8940   -4.8435 C   0  0  0  0  0  0  0  0  0  0  0  0
    3.3683   29.9078   -5.8319 N   0  0  0  0  0  0  0  0  0  0  0  0
    2.8567   30.0178   -7.1600 C   0  0  0  0  0  0  0  0  0  0  0  0
    2.1926   29.1704   -7.7984 N   0  0  0  0  0  0  0  0  0  0  0  0
    1.6637   27.9122   -7.6753 C   0  0  0  0  0  0  0  0  0  0  0  0
    0.2840   27.7109   -7.6188 C   0  0  0  0  0  0  0  0  0  0  0  0
   -0.3255   26.4939   -7.5105 C   0  0  0  0  0  0  0  0  0  0  0  0
    0.4579   25.3595   -7.4518 C   0  0  0  0  0  0  0  0  0  0  0  0
    1.8296   25.5320   -7.5078 C   0  0  0  0  0  0  0  0  0  0  0  0
    2.4397   26.7535   -7.6153 C   0  0  0  0  0  0  0  0  0  0  0  0
    3.9345   26.8143   -7.6666 C   0  0  0  0  0  0  0  0  0  0  0  0
    4.5748   26.0132   -6.5676 C   0  0  0  0  0  0  0  0  0  0  0  0
    4.8188   26.8145   -5.3073 C   0  0  0  0  0  0  0  0  0  0  0  0
    3.7144   27.7027   -5.2253 O   0  0  0  0  0  0  0  0  0  0  0  0
    4.2264   28.9074   -5.3823 N   0  0  0  0  0  0  0  0  0  0  0  0
    3.3199   30.6818   -3.5195 C   0  0  0  0  0  0  0  0  0  0  0  0
    2.9865   31.5868   -2.5404 C   0  0  0  0  0  0  0  0  0  0  0  0
    3.3940   31.2704   -0.8856 Cl  0  0  0  0  0  0  0  0  0  0  0  0
  1  2  1  0
  2  3  2  0
  3  4  1  0
  4  5  2  0
  5  6  1  0
  6  7  1  0
  7  8  2  0
  8  9  1  0
  9 10  2  0
 10 11  1  0
 11 12  2  0
 12 13  1  0
 13 14  2  0
 14 15  1  0
 15 16  1  0
 16 17  1  0
 17 18  1  0
 18 19  1  0
  5 20  1  0
 20 21  2  0
 21 22  1  0
 21  2  1  0
 19  6  1  0
 14  9  1  0
M  END
$$$$
