
     RDKit          3D

 23 25  0  0  0  0  0  0  0  0999 V2000
   42.6498   40.6173   14.4695 O   0  0  0  0  0  0  0  0  0  0  0  0
   41.4487   40.4139   14.7639 C   0  0  0  0  0  0  0  0  0  0  0  0
   41.1275   40.3688   16.1500 N   0  0  0  0  0  0  0  0  0  0  0  0
   42.1264   40.5369   17.1704 C   0  0  0  0  0  0  0  0  0  0  0  0
   42.3530   39.5651   18.1234 C   0  0  0  0  0  0  0  0  0  0  0  0
   43.3026   39.6970   19.1134 C   0  0  0  0  0  0  0  0  0  0  0  0
   43.5822   38.4549   20.3201 Cl  0  0  0  0  0  0  0  0  0  0  0  0
   44.0508   40.8626   19.1349 C   0  0  0  0  0  0  0  0  0  0  0  0
   43.8639   41.8635   18.2064 C   0  0  0  0  0  0  0  0  0  0  0  0
   42.8995   41.6798   17.2367 C   0  0  0  0  0  0  0  0  0  0  0  0
   42.6061   42.9121   16.0213 Cl  0  0  0  0  0  0  0  0  0  0  0  0
   40.4582   40.2370   13.7152 C   0  0  0  0  0  0  0  0  0  0  0  0
   39.2589   39.5839   13.8891 C   0  0  0  0  0  0  0  0  0  0  0  0
   38.5840   39.6111   12.6888 C   0  0  0  0  0  0  0  0  0  0  0  0
   39.4116   40.2898   11.8188 C   0  0  0  0  0  0  0  0  0  0  0  0
   39.0949   40.5595   10.4105 C   0  0  0  0  0  0  0  0  0  0  0  0
   39.9385   41.3096    9.6170 C   0  0  0  0  0  0  0  0  0  0  0  0
   39.6448   41.5654    8.2931 C   0  0  0  0  0  0  0  0  0  0  0  0
   38.4953   41.0771    7.7223 C   0  0  0  0  0  0  0  0  0  0  0  0
   37.6401   40.3280    8.4917 C   0  0  0  0  0  0  0  0  0  0  0  0
   36.1457   39.6635    7.8414 Cl  0  0  0  0  0  0  0  0  0  0  0  0
   37.9558   40.0825    9.8234 C   0  0  0  0  0  0  0  0  0  0  0  0
   40.4758   40.6245   12.4696 O   0  0  0  0  0  0  0  0  0  0  0  0
  1  2  2  0
  2  3  1  0
  3  4  1  0
  4  5  2  0
  5  6  1  0
  6  7  1  0
  6  8  2  0
  8  9  1  0
  9 10  2  0
 10 11  1  0
  2 12  1  0
 12 13  2  0
 13 14  1  0
 14 15  2  0
 15 16  1  0
 16 17  2  0
 17 18  1  0
 18 19  2  0
 19 20  1  0
 20 21  1  0
 20 22  2  0
 15 23  1  0
 10  4  1  0
 23 12  1  0
 22 16  1  0
M  END
$$$$
