
     RDKit          3D

 15 15  0  0  0  0  0  0  0  0999 V2000
  126.0785  135.5483  143.8190 Cl  0  0  0  0  0  0  0  0  0  0  0  0
  127.6676  136.0327  143.2487 C   0  0  0  0  0  0  0  0  0  0  0  0
  128.3852  137.4468  143.5236 S   0  0  0  0  0  4  0  0  0  0  0  0
  128.8440  138.5953  142.4943 C   0  0  0  0  0  0  0  0  0  0  0  0
  128.0217  139.4523  141.9511 C   0  0  0  0  0  0  0  0  0  0  0  0
  128.4516  140.6375  141.2267 C   0  0  0  0  0  0  0  0  0  0  0  0
  129.4582  140.7441  140.3863 C   0  0  0  0  0  0  0  0  0  0  0  0
  130.3958  139.7142  139.9635 C   0  0  0  0  0  0  0  0  0  0  0  0
  130.1832  138.6771  139.1854 C   0  0  0  0  0  0  0  0  0  0  0  0
  129.0690  138.2501  138.5497 O   0  0  0  0  0  0  0  0  0  0  0  0
  127.7428  138.1219  138.8154 C   0  0  0  0  0  0  0  0  0  0  0  0
  127.4902  136.5524  139.8205 P   0  0  0  0  0  0  0  0  0  0  0  0
  129.1111  135.8917  140.3470 C   0  0  0  0  0  0  0  0  0  0  0  0
  129.2705  135.3225  141.4647 N   0  0  0  0  0  0  0  0  0  0  0  0
  128.3840  135.0703  142.4742 N   0  0  0  0  0  0  0  0  0  0  0  0
  1  2  1  0
  2  3  2  0
  3  4  2  0
  4  5  2  0
  5  6  1  0
  6  7  2  0
  7  8  1  0
  8  9  2  0
  9 10  1  0
 10 11  1  0
 11 12  1  0
 12 13  1  0
 13 14  2  0
 14 15  1  0
 15  2  1  0
M  CHG  1   3  -1
M  RAD  1   3   2
M  END
$$$$
