
     RDKit          3D

 15 15  0  0  0  0  0  0  0  0999 V2000
  129.5847  141.0367  142.7513 Cl  0  0  0  0  0  0  0  0  0  0  0  0
  128.1542  140.0416  142.5310 C   0  0  0  0  0  0  0  0  0  0  0  0
  127.2553  139.3982  143.7008 S   0  0  0  0  0  4  0  0  0  0  0  0
  126.9641  137.8563  144.0569 C   0  0  0  0  0  0  0  0  0  0  0  0
  127.8098  137.0859  144.6870 C   0  0  0  0  0  0  0  0  0  0  0  0
  127.4650  135.7825  145.2315 C   0  0  0  0  0  0  0  0  0  0  0  0
  126.7008  134.8608  144.6862 C   0  0  0  0  0  0  0  0  0  0  0  0
  126.0076  134.9021  143.4070 C   0  0  0  0  0  0  0  0  0  0  0  0
  126.5122  134.8432  142.1953 C   0  0  0  0  0  0  0  0  0  0  0  0
  127.7880  134.7276  141.7630 O   0  0  0  0  0  0  0  0  0  0  0  0
  129.0085  135.2367  142.0748 C   0  0  0  0  0  0  0  0  0  0  0  0
  129.1487  136.9482  141.3077 P   0  0  0  0  0  0  0  0  0  0  0  0
  127.5198  137.4677  140.6611 C   0  0  0  0  0  0  0  0  0  0  0  0
  127.1371  138.6721  140.7017 N   0  0  0  0  0  0  0  0  0  0  0  0
  127.7569  139.7916  141.1823 N   0  0  0  0  0  0  0  0  0  0  0  0
  1  2  1  0
  2  3  2  0
  3  4  2  0
  4  5  2  0
  5  6  1  0
  6  7  2  0
  7  8  1  0
  8  9  2  0
  9 10  1  0
 10 11  1  0
 11 12  1  0
 12 13  1  0
 13 14  2  0
 14 15  1  0
 15  2  1  0
M  CHG  1   3  -1
M  RAD  1   3   2
M  END
$$$$
