
     RDKit          3D

 20 22  0  0  0  0  0  0  0  0999 V2000
  163.2543  145.8626  165.0935 C   0  0  0  0  0  0  0  0  0  0  0  0
  163.2822  145.0412  163.9395 O   0  0  0  0  0  0  0  0  0  0  0  0
  164.5385  144.7149  163.3949 C   0  0  0  0  0  0  0  0  0  0  0  0
  165.7063  145.0793  164.0303 C   0  0  0  0  0  0  0  0  0  0  0  0
  166.9382  144.7646  163.5052 C   0  0  0  0  0  0  0  0  0  0  0  0
  167.0610  144.0776  162.3317 C   0  0  0  0  0  0  0  0  0  0  0  0
  168.2838  143.7480  161.7809 C   0  0  0  0  0  0  0  0  0  0  0  0
  169.3345  144.0970  162.3888 O   0  0  0  0  0  0  0  0  0  0  0  0
  168.2957  143.0536  160.5937 C   0  0  0  0  0  0  0  0  0  0  0  0
  167.1231  142.6996  159.9761 C   0  0  0  0  0  0  0  0  0  0  0  0
  167.1109  141.9606  158.7123 C   0  0  0  0  0  0  0  0  0  0  0  0
  168.2423  141.3866  158.1948 C   0  0  0  0  0  0  0  0  0  0  0  0
  168.1857  140.6910  156.9870 C   0  0  0  0  0  0  0  0  0  0  0  0
  166.9763  140.5922  156.3269 C   0  0  0  0  0  0  0  0  0  0  0  0
  165.8297  141.1670  156.8396 C   0  0  0  0  0  0  0  0  0  0  0  0
  165.9164  141.8404  158.0218 C   0  0  0  0  0  0  0  0  0  0  0  0
  166.0095  143.0444  160.5539 O   0  0  0  0  0  0  0  0  0  0  0  0
  165.9024  143.7050  161.6824 C   0  0  0  0  0  0  0  0  0  0  0  0
  164.6472  144.0218  162.2109 C   0  0  0  0  0  0  0  0  0  0  0  0
  163.5031  143.6479  161.5596 O   0  0  0  0  0  0  0  0  0  0  0  0
  1  2  1  0
  2  3  1  0
  3  4  2  0
  4  5  1  0
  5  6  2  0
  6  7  1  0
  7  8  2  0
  7  9  1  0
  9 10  2  0
 10 11  1  0
 11 12  2  0
 12 13  1  0
 13 14  2  0
 14 15  1  0
 15 16  2  0
 10 17  1  0
 17 18  1  0
 18 19  2  0
 19 20  1  0
 19  3  1  0
 18  6  1  0
 16 11  1  0
M  END
$$$$
