
     RDKit          3D

 20 21  0  0  0  0  0  0  0  0999 V2000
    6.8475   33.9582   19.3753 N   0  0  0  0  0  0  0  0  0  0  0  0
    7.1834   32.9050   20.3465 C   0  0  0  0  0  0  0  0  0  0  0  0
    7.7721   33.4210   21.5587 C   0  0  0  0  0  0  0  0  0  0  0  0
    8.0952   32.5219   22.4771 C   0  0  0  0  0  0  0  0  0  0  0  0
    8.4524   31.7621   23.4649 C   0  0  0  0  0  0  0  0  0  0  0  0
    7.4032   30.9152   24.0190 C   0  0  0  0  0  0  0  0  0  0  0  0
    7.9830   30.1463   25.0946 N   0  0  0  0  0  0  0  0  0  0  0  0
    9.2112   30.2312   25.4588 C   0  0  0  0  0  0  0  0  0  0  0  0
    9.5927   29.3566   26.5784 C   0  0  0  0  0  0  0  0  0  0  0  0
    8.8941   28.2307   26.9373 C   0  0  0  0  0  0  0  0  0  0  0  0
    9.2659   27.4234   27.9886 C   0  0  0  0  0  0  0  0  0  0  0  0
   10.3797   27.7367   28.7249 C   0  0  0  0  0  0  0  0  0  0  0  0
   10.8970   26.7350   30.0801 Cl  0  0  0  0  0  0  0  0  0  0  0  0
   11.1025   28.8614   28.3891 C   0  0  0  0  0  0  0  0  0  0  0  0
   12.5292   29.2425   29.3503 Cl  0  0  0  0  0  0  0  0  0  0  0  0
   10.7102   29.6624   27.3248 C   0  0  0  0  0  0  0  0  0  0  0  0
   10.1835   31.0928   24.8598 N   0  0  0  0  0  0  0  0  0  0  0  0
    9.8103   31.8464   23.8784 C   0  0  0  0  0  0  0  0  0  0  0  0
   10.8008   32.7365   23.2543 C   0  0  0  0  0  0  0  0  0  0  0  0
   11.9799   32.7719   23.9926 O   0  0  0  0  0  0  0  0  0  0  0  0
  1  2  1  0
  2  3  1  0
  3  4  2  0
  4  5  2  0
  5  6  1  0
  6  7  1  0
  7  8  2  0
  8  9  1  0
  9 10  2  0
 10 11  1  0
 11 12  2  0
 12 13  1  0
 12 14  1  0
 14 15  1  0
 14 16  2  0
  8 17  1  0
 17 18  2  0
 18 19  1  0
 19 20  1  0
 18  5  1  0
 16  9  1  0
M  END
$$$$
