
     RDKit          3D

 19 20  0  0  0  0  0  0  0  0999 V2000
  128.2706  136.0577  142.5149 C   0  0  0  0  0  0  0  0  0  0  0  0
  127.7197  137.3854  142.4260 N   0  0  0  0  0  0  0  0  0  0  0  0
  127.8273  138.2620  143.5567 C   0  0  0  0  0  0  0  0  0  0  0  0
  128.7636  138.1143  144.3752 O   0  0  0  0  0  0  0  0  0  0  0  0
  126.9019  139.3064  143.7900 N   0  0  0  0  0  0  0  0  0  0  0  0
  127.2701  140.6306  144.1882 C   0  0  0  0  0  0  0  0  0  0  0  0
  127.0692  141.7871  143.5635 N   0  0  0  0  0  0  0  0  0  0  0  0
  127.4728  142.8620  144.0816 N   0  0  0  0  0  0  0  0  0  0  0  0
  128.1002  142.8481  145.2524 C   0  0  0  0  0  0  0  0  0  0  0  0
  128.6496  144.0118  146.0225 C   0  0  0  0  0  0  0  0  0  0  0  0
  128.3567  143.7871  147.4648 C   0  0  0  0  0  0  0  0  0  0  0  0
  128.8751  142.6984  148.1232 C   0  0  0  0  0  0  0  0  0  0  0  0
  128.6358  142.4448  149.4526 C   0  0  0  0  0  0  0  0  0  0  0  0
  127.8423  143.3207  150.1525 C   0  0  0  0  0  0  0  0  0  0  0  0
  127.3237  144.4109  149.4910 C   0  0  0  0  0  0  0  0  0  0  0  0
  126.5095  145.3323  150.1601 O   0  0  0  0  0  0  0  0  0  0  0  0
  126.9728  145.9020  151.3454 C   0  0  0  0  0  0  0  0  0  0  0  0
  127.5616  144.6682  148.1581 C   0  0  0  0  0  0  0  0  0  0  0  0
  128.0949  141.1757  145.6049 S   0  0  0  0  0  0  0  0  0  0  0  0
  1  2  1  0
  2  3  1  0
  3  4  2  0
  3  5  1  0
  5  6  1  0
  6  7  2  0
  7  8  1  0
  8  9  2  0
  9 10  1  0
 10 11  1  0
 11 12  2  0
 12 13  1  0
 13 14  2  0
 14 15  1  0
 15 16  1  0
 16 17  1  0
 15 18  2  0
  9 19  1  0
 19  6  1  0
 18 11  1  0
M  END
$$$$
