
     RDKit          3D

 23 25  0  0  0  0  0  0  0  0999 V2000
  126.5407  130.4962   79.5928 O   0  0  0  0  0  0  0  0  0  0  0  0
  127.3637  129.4037   79.2340 C   0  0  0  0  0  0  0  0  0  0  0  0
  126.5207  128.4223   78.4945 C   0  0  0  0  0  0  0  0  0  0  0  0
  126.8495  128.3686   77.0979 N   0  0  0  0  0  0  0  0  0  0  0  0
  126.0985  128.9930   76.0818 C   0  0  0  0  0  0  0  0  0  0  0  0
  125.0298  129.7538   76.2318 C   0  0  0  0  0  3  0  0  0  0  0  0
  124.2474  130.3643   75.1803 C   0  0  0  0  0  0  0  0  0  0  0  0
  123.1436  131.2036   75.3859 N   0  0  0  0  0  0  0  0  0  0  0  0
  122.7139  131.6409   76.6961 C   0  0  0  0  0  0  0  0  0  0  0  0
  121.3676  132.2673   76.6097 C   0  0  0  0  0  0  0  0  0  0  0  0
  120.5897  132.2077   77.6737 C   0  0  0  0  0  0  0  0  0  0  0  0
  121.2466  131.3878   79.0745 Cl  0  0  0  0  0  0  0  0  0  0  0  0
  119.2029  132.7530   77.8486 C   0  0  0  0  0  0  0  0  0  0  0  0
  119.1673  134.1332   77.5571 O   0  0  0  0  0  0  0  0  0  0  0  0
  119.7982  134.7914   76.5035 C   0  0  0  0  0  0  0  0  0  0  0  0
  120.5656  134.2922   75.5703 C   0  0  0  0  0  0  0  0  0  0  0  0
  121.0187  132.9131   75.3098 C   0  0  0  0  0  0  0  0  0  0  0  0
  124.6098  130.1041   73.9406 N   0  0  0  0  0  0  0  0  0  0  0  0
  125.7022  129.2304   73.7215 C   0  0  0  0  0  0  0  0  0  0  0  0
  126.0870  128.4341   72.7279 C   0  0  0  0  0  0  0  0  0  0  0  0
  127.3376  127.7379   73.0925 C   0  0  0  0  0  0  0  0  0  0  0  0
  127.7117  128.1294   74.3281 C   0  0  0  0  0  0  0  0  0  0  0  0
  126.7231  129.0809   74.7514 C   0  0  0  0  0  0  0  0  0  0  0  0
  1  2  1  0
  2  3  1  0
  3  4  1  0
  4  5  1  0
  5  6  2  0
  6  7  1  0
  7  8  1  0
  8  9  1  0
  9 10  1  0
 10 11  2  0
 11 12  1  0
 11 13  1  0
 13 14  1  0
 14 15  1  0
 15 16  2  0
 16 17  1  0
  7 18  2  0
 18 19  1  0
 19 20  2  0
 20 21  1  0
 21 22  2  0
 22 23  1  0
 23  5  1  0
 17 10  1  0
 23 19  1  0
M  CHG  1   6  -1
M  END
$$$$
