
     RDKit          3D

 39 40  0  0  0  0  0  0  0  0999 V2000
   15.3318   26.9772   22.8522 C   0  0  0  0  0  0  0  0  0  0  0  0
   14.2389   27.4816   22.3152 C   0  0  0  0  0  0  0  0  0  0  0  0
   13.2008   26.5362   21.7979 C   0  0  0  0  0  0  0  0  0  0  0  0
   12.0432   27.2986   21.2705 C   0  0  0  0  0  0  0  0  0  0  0  0
   12.0948   27.8399   20.0812 C   0  0  0  0  0  0  0  0  0  0  0  0
   10.9764   28.5466   19.4958 C   0  0  0  0  0  0  0  0  0  0  0  0
   10.0275   29.1497   19.0090 C   0  0  0  0  0  0  0  0  0  0  0  0
    8.9015   29.8955   18.4251 C   0  0  0  0  0  0  0  0  0  0  0  0
    8.3370   30.7916   19.4319 N   0  0  0  0  0  0  0  0  0  0  0  0
    7.2365   31.6176   19.1062 C   0  0  0  0  0  0  0  0  0  0  0  0
    6.6275   32.3259   20.0061 C   0  0  0  0  0  0  0  0  0  0  0  0
    7.2261   32.9100   21.5405 S   0  0  0  0  0  0  0  0  0  0  0  0
    8.4020   34.2330   21.4625 C   0  0  0  0  0  0  0  0  0  0  0  0
    9.4779   34.1464   22.2212 C   0  0  0  0  0  0  0  0  0  0  0  0
   10.6736   34.9802   22.4636 C   0  0  0  0  0  0  0  0  0  0  0  0
   11.3198   35.9441   21.7682 C   0  0  0  0  0  0  0  0  0  0  0  0
   12.4920   36.4676   22.4790 C   0  0  0  0  0  0  0  0  0  0  0  0
   12.7424   36.1265   23.7682 N   0  0  0  0  0  0  0  0  0  0  0  0
   13.2274   35.8939   24.8291 C   0  0  0  0  0  0  0  0  0  0  0  0
   13.2302   36.9085   25.9735 C   0  0  0  0  0  0  0  0  0  0  0  0
   12.6854   38.1898   25.4055 C   0  0  0  0  0  0  0  0  0  0  0  0
   13.8480   34.6379   25.1230 N   0  0  0  0  0  0  0  0  0  0  0  0
   14.4726   34.3743   26.3700 C   0  0  0  0  0  0  0  0  0  0  0  0
   15.0915   32.9678   26.3522 C   0  0  0  0  0  0  0  0  0  0  0  0
   16.5548   33.0569   26.0239 C   0  0  0  0  0  0  0  0  0  0  0  0
   11.1098   36.5324   20.4791 C   0  0  0  0  0  0  0  0  0  0  0  0
   12.3532   37.0558   19.8780 C   0  0  0  0  0  0  0  0  0  0  0  0
   12.2187   38.5163   19.5527 C   0  0  0  0  0  0  0  0  0  0  0  0
   11.3852   39.1725   20.2754 N   0  0  0  0  0  0  0  0  0  0  0  0
   11.0594   40.5495   20.0195 C   0  0  0  0  0  0  0  0  0  0  0  0
   10.2238   40.5836   18.7994 C   0  0  0  0  0  0  0  0  0  0  0  0
    9.8264   41.7441   18.3210 C   0  0  0  0  0  0  0  0  0  0  0  0
   10.0576   36.6729   19.7040 N   0  0  0  0  0  0  0  0  0  0  0  0
    8.6715   36.2898   19.8267 C   0  0  0  0  0  0  0  0  0  0  0  0
    7.9632   37.1435   19.0213 C   0  0  0  0  0  0  0  0  0  0  0  0
    6.5719   37.0148   18.9121 C   0  0  0  0  0  0  0  0  0  0  0  0
    5.9282   36.0176   19.6270 C   0  0  0  0  0  0  0  0  0  0  0  0
    6.6466   35.1661   20.4321 C   0  0  0  0  0  0  0  0  0  0  0  0
    7.9939   35.3096   20.5224 C   0  0  0  0  0  0  0  0  0  0  0  0
  1  2  2  0
  2  3  1  0
  3  4  1  0
  4  5  2  3
  5  6  1  0
  6  7  3  0
  7  8  1  0
  8  9  1  0
  9 10  1  0
 10 11  2  3
 11 12  1  0
 12 13  1  0
 13 14  2  0
 14 15  1  0
 15 16  2  0
 16 17  1  0
 17 18  1  0
 18 19  2  3
 19 20  1  0
 20 21  1  0
 19 22  1  0
 22 23  1  0
 23 24  1  0
 24 25  1  0
 16 26  1  0
 26 27  1  0
 27 28  1  0
 28 29  2  3
 29 30  1  0
 30 31  1  0
 31 32  2  0
 26 33  2  0
 33 34  1  0
 34 35  2  0
 35 36  1  0
 36 37  2  0
 37 38  1  0
 38 39  2  0
 39 13  1  0
 39 34  1  0
M  END
$$$$
