
     RDKit          3D

 22 24  0  0  0  0  0  0  0  0999 V2000
   24.7855   73.3151   11.3912 C   0  0  0  0  0  0  0  0  0  0  0  0
   25.3336   72.9455   12.5876 O   0  0  0  0  0  0  0  0  0  0  0  0
   24.9367   71.7364   13.0922 C   0  0  0  0  0  0  0  0  0  0  0  0
   23.4185   71.5558   13.0466 C   0  0  0  0  0  0  0  0  0  0  0  0
   23.1092   70.0931   13.1120 C   0  0  0  0  0  0  0  0  0  0  0  0
   22.2560   69.6670   14.1703 N   0  0  0  0  0  0  0  0  0  0  0  0
   21.9749   68.3342   14.4170 C   0  0  0  0  0  0  0  0  0  0  0  0
   21.8316   67.5700   13.3864 O   0  0  0  0  0  0  0  0  0  0  0  0
   21.8044   67.6249   15.6734 C   0  0  0  0  0  0  0  0  0  0  0  0
   20.7375   67.4901   16.5075 C   0  0  0  0  0  0  0  0  0  0  0  0
   19.0793   68.4091   16.0332 Br  0  0  0  0  0  0  0  0  0  0  0  0
   20.9068   66.7618   17.6447 C   0  0  0  0  0  0  0  0  0  0  0  0
   19.9329   66.5005   18.6291 C   0  0  0  0  0  0  0  0  0  0  0  0
   20.2387   65.7379   19.7434 C   0  0  0  0  0  0  0  0  0  0  0  0
   21.4796   65.2060   19.9512 C   0  0  0  0  0  0  0  0  0  0  0  0
   22.4401   65.4496   19.0005 C   0  0  0  0  0  0  0  0  0  0  0  0
   22.1320   66.2257   17.8611 C   0  0  0  0  0  0  0  0  0  0  0  0
   23.0337   66.7177   16.5146 S   0  0  0  0  0  0  0  0  0  0  0  0
   21.6588   70.6537   15.0614 C   0  0  0  0  0  0  0  0  0  0  0  0
   21.5379   71.9550   14.3200 C   0  0  0  0  0  0  0  0  0  0  0  0
   20.9836   73.0504   15.2145 C   0  0  0  0  0  0  0  0  0  0  0  0
   22.8369   72.3374   13.9894 O   0  0  0  0  0  0  0  0  0  0  0  0
  1  2  1  0
  2  3  1  0
  3  4  1  0
  4  5  1  0
  5  6  1  0
  6  7  1  0
  7  8  2  0
  7  9  1  0
  9 10  2  0
 10 11  1  0
 10 12  1  0
 12 13  2  0
 13 14  1  0
 14 15  2  0
 15 16  1  0
 16 17  2  0
 17 18  1  0
  6 19  1  0
 19 20  1  0
 20 21  1  0
 20 22  1  0
 22  4  1  0
 18  9  1  0
 17 12  1  0
M  END
$$$$
