
     RDKit          3D

 36 40  0  0  0  0  0  0  0  0999 V2000
  124.7325  148.9787  153.1427 C   0  0  0  0  0  0  0  0  0  0  0  0
  124.2356  147.9883  152.2559 O   0  0  0  0  0  0  0  0  0  0  0  0
  125.1319  147.3940  151.3762 C   0  0  0  0  0  0  0  0  0  0  0  0
  126.4108  147.8738  151.1947 C   0  0  0  0  0  0  0  0  0  0  0  0
  127.3112  147.2978  150.3280 C   0  0  0  0  0  0  0  0  0  0  0  0
  126.9162  146.1939  149.6112 C   0  0  0  0  0  0  0  0  0  0  0  0
  127.8574  145.5397  148.6631 C   0  0  0  0  0  0  0  0  0  0  0  0
  127.3658  145.5521  147.2889 C   0  0  0  0  0  0  0  0  0  0  0  0
  127.3207  144.4720  146.5507 C   0  0  0  0  0  0  0  0  0  0  0  0
  126.8108  144.5305  145.1497 C   0  0  0  0  0  0  0  0  0  0  0  0
  125.5792  145.4055  145.0738 C   0  0  0  0  0  0  0  0  0  0  0  0
  124.4410  144.6430  145.7195 C   0  0  0  0  0  0  0  0  0  0  0  0
  125.2147  145.6159  143.6201 C   0  0  0  0  0  0  0  0  0  0  0  0
  125.8022  146.7517  145.6970 C   0  0  0  0  0  0  0  0  0  0  0  0
  126.8925  146.7999  146.6568 C   0  0  0  0  0  0  0  0  0  0  0  0
  127.4322  147.8843  146.9523 O   0  0  0  0  0  0  0  0  0  0  0  0
  127.7405  143.1978  147.0075 N   0  0  0  0  0  0  0  0  0  0  0  0
  127.6908  142.0333  146.2082 C   0  0  0  0  0  0  0  0  0  0  0  0
  128.6728  141.6970  145.3002 C   0  0  0  0  0  0  0  0  0  0  0  0
  128.5226  140.5360  144.5716 C   0  0  0  0  0  0  0  0  0  0  0  0
  127.4311  139.6957  144.7123 C   0  0  0  0  0  0  0  0  0  0  0  0
  127.3417  138.5269  143.9369 O   0  0  0  0  0  0  0  0  0  0  0  0
  127.8013  138.5860  142.6020 C   0  0  0  0  0  0  0  0  0  0  0  0
  126.4509  140.0329  145.6198 C   0  0  0  0  0  0  0  0  0  0  0  0
  126.6029  141.1980  146.3500 C   0  0  0  0  0  0  0  0  0  0  0  0
  128.2239  143.1555  148.3408 C   0  0  0  0  0  0  0  0  0  0  0  0
  128.2846  144.2191  149.1150 C   0  0  0  0  0  0  0  0  0  0  0  0
  128.8169  144.0060  150.4713 C   0  0  0  0  0  0  0  0  0  0  0  0
  129.5634  144.9125  150.9381 O   0  0  0  0  0  0  0  0  0  0  0  0
  128.4509  142.7694  151.1876 C   0  0  0  0  0  0  0  0  0  0  0  0
  128.1894  141.6127  150.2830 C   0  0  0  0  0  0  0  0  0  0  0  0
  126.6926  141.3204  150.1685 C   0  0  0  0  0  0  0  0  0  0  0  0
  128.8892  140.3933  150.8416 C   0  0  0  0  0  0  0  0  0  0  0  0
  128.6929  141.8468  148.8794 C   0  0  0  0  0  0  0  0  0  0  0  0
  125.6574  145.7059  149.7772 C   0  0  0  0  0  0  0  0  0  0  0  0
  124.7531  146.2817  150.6454 C   0  0  0  0  0  0  0  0  0  0  0  0
  1  2  1  0
  2  3  1  0
  3  4  2  0
  4  5  1  0
  5  6  2  0
  6  7  1  0
  7  8  1  0
  8  9  2  0
  9 10  1  0
 10 11  1  0
 11 12  1  0
 11 13  1  0
 11 14  1  0
 14 15  1  0
 15 16  2  0
  9 17  1  0
 17 18  1  0
 18 19  2  0
 19 20  1  0
 20 21  2  0
 21 22  1  0
 22 23  1  0
 21 24  1  0
 24 25  2  0
 17 26  1  0
 26 27  2  0
 27 28  1  0
 28 29  2  0
 28 30  1  0
 30 31  1  0
 31 32  1  0
 31 33  1  0
 31 34  1  0
  6 35  1  0
 35 36  2  0
 36  3  1  0
 27  7  1  0
 15  8  1  0
 25 18  1  0
 34 26  1  0
M  END
$$$$
