
     RDKit          3D

 15 15  0  0  0  0  0  0  0  0999 V2000
  127.1591  138.8809  147.3608 C   0  0  0  0  0  0  0  0  0  0  0  0
  127.4053  140.2695  146.8600 C   0  0  0  0  0  0  0  0  0  0  0  0
  126.0777  140.9624  146.5853 C   0  0  0  0  0  0  0  0  0  0  0  0
  128.1868  140.2865  145.5618 C   0  0  0  0  0  0  0  0  0  0  0  0
  127.5826  139.4723  144.5460 N   0  0  0  0  0  0  0  0  0  0  0  0
  128.2441  139.2790  143.4320 C   0  0  0  0  0  0  0  0  0  0  0  0
  129.5274  139.8488  143.2013 N   0  0  0  0  0  0  0  0  0  0  0  0
  127.6063  138.4662  142.4603 N   0  0  0  0  0  0  0  0  0  0  0  0
  128.2090  138.1040  141.2275 C   0  0  0  0  0  0  0  0  0  0  0  0
  128.8235  138.9774  140.3875 C   0  0  0  0  0  0  0  0  0  0  0  0
  129.4007  138.5470  139.1904 C   0  0  0  0  0  0  0  0  0  0  0  0
  129.3669  137.2212  138.8192 C   0  0  0  0  0  0  0  0  0  0  0  0
  128.7441  136.3295  139.6679 C   0  0  0  0  0  0  0  0  0  0  0  0
  128.7173  134.9945  139.2808 O   0  0  0  0  0  0  0  0  0  0  0  0
  128.1777  136.7722  140.8496 C   0  0  0  0  0  0  0  0  0  0  0  0
  1  2  1  0
  2  3  1  0
  2  4  1  0
  4  5  1  0
  5  6  2  3
  6  7  1  0
  6  8  1  0
  8  9  1  0
  9 10  2  0
 10 11  1  0
 11 12  2  0
 12 13  1  0
 13 14  1  0
 13 15  2  0
 15  9  1  0
M  END
$$$$
