
     RDKit          3D

  6  5  0  0  0  0  0  0  0  0999 V2000
  157.0942  149.3794  179.1855 C   0  0  0  0  0  0  0  0  0  0  0  0
  157.2754  149.2785  177.6980 C   0  0  0  0  0  0  0  0  0  0  0  0
  155.9233  149.3673  176.9836 C   0  0  0  0  0  0  0  0  0  0  0  0
  156.1667  149.1438  175.5078 C   0  0  0  0  0  0  0  0  0  0  0  0
  154.9336  149.2607  174.7435 C   0  0  0  0  0  0  0  0  0  0  0  0
  153.9644  149.3366  174.1300 N   0  0  0  0  0  0  0  0  0  0  0  0
  1  2  1  0
  2  3  1  0
  3  4  1  0
  4  5  1  0
  5  6  3  0
M  END
$$$$
