
     RDKit          3D

 30 33  0  0  0  0  0  0  0  0999 V2000
  150.1023  145.6925  136.1270 C   0  0  0  0  0  0  0  0  0  0  0  0
  150.6246  144.9705  137.2233 O   0  0  0  0  0  0  0  0  0  0  0  0
  150.8066  145.6284  138.4338 C   0  0  0  0  0  0  0  0  0  0  0  0
  150.6646  146.9929  138.4917 C   0  0  0  0  0  0  0  0  0  0  0  0
  150.8439  147.6575  139.6937 C   0  0  0  0  0  0  0  0  0  0  0  0
  151.1656  147.0107  140.8665 C   0  0  0  0  0  0  0  0  0  0  0  0
  151.3573  147.7187  142.1265 C   0  0  0  0  0  0  0  0  0  0  0  0
  151.4066  149.0883  142.2745 C   0  0  0  0  0  0  0  0  0  0  0  0
  151.6023  149.4050  143.6186 C   0  0  0  0  0  0  0  0  0  0  0  0
  151.7223  150.6052  144.2991 C   0  0  0  0  0  0  0  0  0  0  0  0
  151.6286  152.1243  143.3587 S   0  0  0  0  0  0  0  0  0  0  0  0
  150.3598  153.1476  144.2008 C   0  0  0  0  0  0  0  0  0  0  0  0
  151.0163  153.7334  145.3973 C   0  0  0  0  0  0  0  0  0  0  0  0
  152.0685  154.4338  145.2977 O   0  0  0  0  0  0  0  0  0  0  0  0
  150.4362  153.4945  146.6923 N   0  0  0  0  0  0  0  0  0  0  0  0
  151.1239  154.0545  147.7988 C   0  0  0  0  0  0  0  0  0  0  0  0
  152.2863  154.7571  147.5914 C   0  0  0  0  0  0  0  0  0  0  0  0
  153.0089  155.3361  148.6309 C   0  0  0  0  0  0  0  0  0  0  0  0
  152.5016  155.1729  149.8995 C   0  0  0  0  0  0  0  0  0  0  0  0
  151.3364  154.4692  150.1111 C   0  0  0  0  0  0  0  0  0  0  0  0
  150.7899  154.2980  151.4364 C   0  0  0  0  0  0  0  0  0  0  0  0
  150.3304  154.1706  152.5063 N   0  0  0  0  0  0  0  0  0  0  0  0
  150.6174  153.8907  149.0586 C   0  0  0  0  0  0  0  0  0  0  0  0
  151.9077  150.5774  145.6293 N   0  0  0  0  0  0  0  0  0  0  0  0
  151.9759  149.4123  146.2881 C   0  0  0  0  0  0  0  0  0  0  0  0
  151.8525  148.2434  145.5785 C   0  0  0  0  0  0  0  0  0  0  0  0
  151.6660  148.2150  144.2482 N   0  0  0  0  0  0  0  0  0  0  0  0
  151.5212  147.2257  143.3645 N   0  0  0  0  0  0  0  0  0  0  0  0
  151.3081  145.6410  140.8084 C   0  0  0  0  0  0  0  0  0  0  0  0
  151.1277  144.9680  139.5972 C   0  0  0  0  0  0  0  0  0  0  0  0
  1  2  1  0
  2  3  1  0
  3  4  2  0
  4  5  1  0
  5  6  2  0
  6  7  1  0
  7  8  1  0
  8  9  2  0
  9 10  1  0
 10 11  1  0
 11 12  1  0
 12 13  1  0
 13 14  2  0
 13 15  1  0
 15 16  1  0
 16 17  2  0
 17 18  1  0
 18 19  2  0
 19 20  1  0
 20 21  1  0
 21 22  3  0
 20 23  2  0
 10 24  2  0
 24 25  1  0
 25 26  2  0
 26 27  1  0
 27 28  1  0
  6 29  1  0
 29 30  2  0
 30  3  1  0
 28  7  2  0
 27  9  1  0
 23 16  1  0
M  END
$$$$
