
     RDKit          3D

 24 26  0  0  0  0  0  0  0  0999 V2000
  137.0456  165.7638  126.7101 C   0  0  0  0  0  0  0  0  0  0  0  0
  137.2983  167.1183  127.0262 O   0  0  0  0  0  0  0  0  0  0  0  0
  136.9822  167.5465  128.3087 C   0  0  0  0  0  0  0  0  0  0  0  0
  136.8923  168.8449  128.7511 C   0  0  0  0  0  0  0  0  0  0  0  0
  136.5603  169.0975  130.0851 C   0  0  0  0  0  0  0  0  0  0  0  0
  136.3154  168.0844  130.9895 C   0  0  0  0  0  0  0  0  0  0  0  0
  135.9763  168.4462  132.3588 C   0  0  0  0  0  0  0  0  0  0  0  0
  136.0087  169.7462  132.8180 C   0  0  0  0  0  0  0  0  0  0  0  0
  135.6837  170.0922  134.1298 C   0  0  0  0  0  0  0  0  0  0  0  0
  135.7054  171.2566  134.5674 O   0  0  0  0  0  0  0  0  0  0  0  0
  135.3207  169.0272  134.9529 C   0  0  0  0  0  0  0  0  0  0  0  0
  134.9769  169.2248  136.2663 C   0  0  0  0  0  0  0  0  0  0  0  0
  134.9991  170.5417  136.7695 O   0  0  0  0  0  0  0  0  0  0  0  0
  134.6148  168.1733  137.0923 C   0  0  0  0  0  0  0  0  0  0  0  0
  134.2855  168.5022  138.4118 O   0  0  0  0  0  0  0  0  0  0  0  0
  132.9258  168.6668  138.7387 C   0  0  0  0  0  0  0  0  0  0  0  0
  134.6026  166.8959  136.5706 C   0  0  0  0  0  0  0  0  0  0  0  0
  134.2289  165.9152  137.4691 O   0  0  0  0  0  0  0  0  0  0  0  0
  133.9543  164.5975  137.0321 C   0  0  0  0  0  0  0  0  0  0  0  0
  134.9484  166.6929  135.2478 C   0  0  0  0  0  0  0  0  0  0  0  0
  135.3098  167.7447  134.4248 C   0  0  0  0  0  0  0  0  0  0  0  0
  135.6307  167.4722  133.1599 O   0  0  0  0  0  0  0  0  0  0  0  0
  136.4155  166.7967  130.5072 C   0  0  0  0  0  0  0  0  0  0  0  0
  136.7395  166.5098  129.2027 C   0  0  0  0  0  0  0  0  0  0  0  0
  1  2  1  0
  2  3  1  0
  3  4  2  0
  4  5  1  0
  5  6  2  0
  6  7  1  0
  7  8  2  0
  8  9  1  0
  9 10  2  0
  9 11  1  0
 11 12  2  0
 12 13  1  0
 12 14  1  0
 14 15  1  0
 15 16  1  0
 14 17  2  0
 17 18  1  0
 18 19  1  0
 17 20  1  0
 20 21  2  0
 21 22  1  0
  6 23  1  0
 23 24  2  0
 24  3  1  0
 22  7  1  0
 21 11  1  0
M  END
$$$$
