
     RDKit          3D

 30 33  0  0  0  0  0  0  0  0999 V2000
   14.6587   23.0337   29.2146 C   0  0  0  0  0  0  0  0  0  0  0  0
   14.7443   22.2224   28.0607 O   0  0  0  0  0  0  0  0  0  0  0  0
   16.0092   21.7982   27.6264 C   0  0  0  0  0  0  0  0  0  0  0  0
   16.1806   20.5065   27.2048 C   0  0  0  0  0  0  0  0  0  0  0  0
   17.4156   20.0899   26.7800 C   0  0  0  0  0  0  0  0  0  0  0  0
   18.5056   20.9311   26.7600 C   0  0  0  0  0  0  0  0  0  0  0  0
   19.8107   20.4504   26.3006 C   0  0  0  0  0  0  0  0  0  0  0  0
   20.8215   21.2648   25.8238 C   0  0  0  0  0  0  0  0  0  0  0  0
   21.9078   20.4888   25.4777 C   0  0  0  0  0  0  0  0  0  0  0  0
   23.1702   20.7526   24.9590 C   0  0  0  0  0  0  0  0  0  0  0  0
   23.5025   22.4982   24.6479 S   0  0  0  0  0  0  0  0  0  0  0  0
   25.1803   22.5943   24.0099 C   0  0  0  0  0  0  0  0  0  0  0  0
   26.1460   22.4053   25.1174 C   0  0  0  0  0  0  0  0  0  0  0  0
   27.4017   22.4188   24.8747 O   0  0  0  0  0  0  0  0  0  0  0  0
   25.7470   22.2062   26.4698 N   0  0  0  0  0  0  0  0  0  0  0  0
   26.7426   22.0990   27.4671 C   0  0  0  0  0  0  0  0  0  0  0  0
   28.0701   22.3101   27.0918 C   0  0  0  0  0  0  0  0  0  0  0  0
   29.0917   22.2201   27.9958 C   0  0  0  0  0  0  0  0  0  0  0  0
   28.7926   21.9135   29.3042 C   0  0  0  0  0  0  0  0  0  0  0  0
   27.4742   21.6983   29.7031 C   0  0  0  0  0  0  0  0  0  0  0  0
   27.2570   21.3841   31.0670 C   0  0  0  0  0  0  0  0  0  0  0  0
   27.0620   21.1170   32.1830 N   0  0  0  0  0  0  0  0  0  0  0  0
   26.4574   21.7942   28.7738 C   0  0  0  0  0  0  0  0  0  0  0  0
   24.0559   19.7851   24.7114 N   0  0  0  0  0  0  0  0  0  0  0  0
   23.6718   18.5141   24.9894 C   0  0  0  0  0  0  0  0  0  0  0  0
   22.4230   18.2358   25.5041 C   0  0  0  0  0  0  0  0  0  0  0  0
   21.5417   19.2232   25.7481 N   0  0  0  0  0  0  0  0  0  0  0  0
   20.3071   19.2100   26.2315 N   0  0  0  0  0  0  0  0  0  0  0  0
   18.3384   22.2357   27.1843 C   0  0  0  0  0  0  0  0  0  0  0  0
   17.0865   22.6413   27.6105 C   0  0  0  0  0  0  0  0  0  0  0  0
  1  2  1  0
  2  3  1  0
  3  4  2  0
  4  5  1  0
  5  6  2  0
  6  7  1  0
  7  8  1  0
  8  9  2  0
  9 10  1  0
 10 11  1  0
 11 12  1  0
 12 13  1  0
 13 14  2  0
 13 15  1  0
 15 16  1  0
 16 17  2  0
 17 18  1  0
 18 19  2  0
 19 20  1  0
 20 21  1  0
 21 22  3  0
 20 23  2  0
 10 24  2  0
 24 25  1  0
 25 26  2  0
 26 27  1  0
 27 28  1  0
  6 29  1  0
 29 30  2  0
 30  3  1  0
 28  7  2  0
 27  9  1  0
 23 16  1  0
M  END
$$$$
