
     RDKit          3D

 19 20  0  0  0  0  0  0  0  0999 V2000
  147.4026  148.5427  149.4640 O   0  0  0  0  0  0  0  0  0  0  0  0
  147.2558  148.2474  148.0993 C   0  0  0  0  0  0  0  0  0  0  0  0
  147.7512  149.4132  147.2449 C   0  0  0  0  0  0  0  0  0  0  0  0
  149.1588  149.5470  147.4232 N   0  0  0  0  0  0  0  0  0  0  0  0
  149.8704  150.1795  146.3619 C   0  0  0  0  0  0  0  0  0  0  0  0
  150.8170  149.3418  145.6303 C   0  0  0  0  0  0  0  0  0  0  0  0
  150.6235  148.0935  144.9269 N   0  0  0  0  0  0  0  0  0  0  0  0
  151.7107  147.3245  144.4781 C   0  0  0  0  0  0  0  0  0  0  0  0
  151.7034  146.1360  143.9322 C   0  0  0  0  0  0  0  0  0  0  0  0
  152.9074  145.4893  143.5286 C   0  0  0  0  0  0  0  0  0  0  0  0
  153.9342  144.9377  143.1844 C   0  0  0  0  0  0  0  0  0  0  0  0
  154.3295  142.9225  143.8292 I   0  0  0  0  0  0  0  0  0  0  0  0
  151.9699  149.9109  145.6717 N   0  0  0  0  0  0  0  0  0  0  0  0
  151.9562  151.1221  146.3805 C   0  0  0  0  0  0  0  0  0  0  0  0
  152.8813  152.1113  146.7076 C   0  0  0  0  0  0  0  0  0  0  0  0
  152.5552  153.2431  147.4310 C   0  0  0  0  0  0  0  0  0  0  0  0
  151.2488  153.4241  147.8657 C   0  0  0  0  0  0  0  0  0  0  0  0
  150.3154  152.4634  147.5572 C   0  0  0  0  0  0  0  0  0  0  0  0
  150.6728  151.3336  146.8260 C   0  0  0  0  0  0  0  0  0  0  0  0
  1  2  1  0
  2  3  1  0
  3  4  1  0
  4  5  1  0
  5  6  1  0
  6  7  1  0
  7  8  1  0
  8  9  2  3
  9 10  1  0
 10 11  2  3
 11 12  1  0
  6 13  2  0
 13 14  1  0
 14 15  2  0
 15 16  1  0
 16 17  2  0
 17 18  1  0
 18 19  2  0
 19  5  1  0
 19 14  1  0
M  END
$$$$
