
     RDKit          3D

 22 24  0  0  0  0  0  0  0  0999 V2000
   51.0967   34.3492    5.8719 C   0  0  0  0  0  3  0  0  0  0  0  0
   51.7322   35.0453    5.1346 C   0  0  0  0  0  0  0  0  0  0  0  0
   52.4721   35.8436    4.2539 N   0  0  0  0  0  0  0  0  0  0  0  0
   53.8046   35.4783    3.9465 C   0  0  0  0  0  0  0  0  0  0  0  0
   54.1162   34.2216    3.9440 N   0  0  0  0  0  0  0  0  0  0  0  0
   55.3476   33.5351    3.6796 C   0  0  0  0  0  0  0  0  0  0  0  0
   56.0701   34.0164    2.5509 N   0  0  0  0  0  0  0  0  0  0  0  0
   56.5030   33.0465    1.6184 C   0  0  0  0  0  0  0  0  0  0  0  0
   57.5435   33.3441    0.7761 C   0  0  0  0  0  0  0  0  0  0  0  0
   57.9928   32.4275   -0.1738 C   0  0  0  0  0  0  0  0  0  0  0  0
   57.4083   31.1954   -0.2974 C   0  0  0  0  0  0  0  0  0  0  0  0
   57.9792   30.0487   -1.4942 Cl  0  0  0  0  0  0  0  0  0  0  0  0
   56.3563   30.9040    0.5602 C   0  0  0  0  0  0  0  0  0  0  0  0
   55.6108   29.3215    0.3966 Cl  0  0  0  0  0  0  0  0  0  0  0  0
   55.9091   31.8053    1.4990 C   0  0  0  0  0  0  0  0  0  0  0  0
   56.4065   35.3617    2.2158 N   0  0  0  0  0  0  0  0  0  0  0  0
   55.8631   36.5076    2.8676 C   0  0  0  0  0  0  0  0  0  0  0  0
   56.5938   37.6433    2.6798 C   0  0  0  0  0  0  0  0  0  0  0  0
   56.1838   38.8204    3.2660 C   0  0  0  0  0  0  0  0  0  0  0  0
   55.0331   38.8626    4.0474 C   0  0  0  0  0  0  0  0  0  0  0  0
   54.2928   37.7219    4.2404 C   0  0  0  0  0  0  0  0  0  0  0  0
   54.7101   36.5574    3.6513 C   0  0  0  0  0  0  0  0  0  0  0  0
  1  2  3  0
  2  3  1  0
  3  4  1  0
  4  5  2  0
  5  6  1  0
  6  7  1  0
  7  8  1  0
  8  9  2  0
  9 10  1  0
 10 11  2  0
 11 12  1  0
 11 13  1  0
 13 14  1  0
 13 15  2  0
  7 16  1  0
 16 17  1  0
 17 18  2  0
 18 19  1  0
 19 20  2  0
 20 21  1  0
 21 22  2  0
 22  4  1  0
 15  8  1  0
 22 17  1  0
M  CHG  1   1  -1
M  END
$$$$
