
     RDKit          3D

 22 24  0  0  0  0  0  0  0  0999 V2000
   27.8234   55.2987   24.9402 C   0  0  0  0  0  3  0  0  0  0  0  0
   28.2797   54.7865   23.9596 C   0  0  0  0  0  0  0  0  0  0  0  0
   28.8238   54.1700   22.8264 N   0  0  0  0  0  0  0  0  0  0  0  0
   29.6953   53.0672   22.9931 C   0  0  0  0  0  0  0  0  0  0  0  0
   29.5115   52.2818   24.0058 N   0  0  0  0  0  0  0  0  0  0  0  0
   30.2011   51.1047   24.4493 C   0  0  0  0  0  0  0  0  0  0  0  0
   30.5276   50.1787   23.4182 N   0  0  0  0  0  0  0  0  0  0  0  0
   30.1738   48.8294   23.6465 C   0  0  0  0  0  0  0  0  0  0  0  0
   29.5438   48.4905   24.8165 C   0  0  0  0  0  0  0  0  0  0  0  0
   29.1934   47.1700   25.0955 C   0  0  0  0  0  0  0  0  0  0  0  0
   29.4671   46.1644   24.2073 C   0  0  0  0  0  0  0  0  0  0  0  0
   29.0232   44.5068   24.5656 Cl  0  0  0  0  0  0  0  0  0  0  0  0
   30.1047   46.5182   23.0260 C   0  0  0  0  0  0  0  0  0  0  0  0
   30.4530   45.2234   21.8907 Cl  0  0  0  0  0  0  0  0  0  0  0  0
   30.4528   47.8198   22.7463 C   0  0  0  0  0  0  0  0  0  0  0  0
   31.1538   50.4293   22.1611 N   0  0  0  0  0  0  0  0  0  0  0  0
   31.3638   51.7308   21.6180 C   0  0  0  0  0  0  0  0  0  0  0  0
   32.3078   51.7691   20.6349 C   0  0  0  0  0  0  0  0  0  0  0  0
   32.6150   52.9697   20.0336 C   0  0  0  0  0  0  0  0  0  0  0  0
   31.9731   54.1428   20.4186 C   0  0  0  0  0  0  0  0  0  0  0  0
   31.0213   54.1107   21.4084 C   0  0  0  0  0  0  0  0  0  0  0  0
   30.7236   52.9105   21.9983 C   0  0  0  0  0  0  0  0  0  0  0  0
  1  2  3  0
  2  3  1  0
  3  4  1  0
  4  5  2  0
  5  6  1  0
  6  7  1  0
  7  8  1  0
  8  9  2  0
  9 10  1  0
 10 11  2  0
 11 12  1  0
 11 13  1  0
 13 14  1  0
 13 15  2  0
  7 16  1  0
 16 17  1  0
 17 18  2  0
 18 19  1  0
 19 20  2  0
 20 21  1  0
 21 22  2  0
 22  4  1  0
 15  8  1  0
 22 17  1  0
M  CHG  1   1  -1
M  END
$$$$
