
     RDKit          3D

 36 36  0  0  0  0  0  0  0  0999 V2000
  -10.2341   -9.0575  -58.6951 C   0  0  0  0  0  0  0  0  0  0  0  0
   -9.6966   -9.2847  -60.1358 C   0  0  0  0  0  0  0  0  0  0  0  0
   -8.2657   -9.6276  -59.9647 C   0  0  0  0  0  0  0  0  0  0  0  0
   -7.4841   -9.8781  -61.2151 C   0  0  0  0  0  0  0  0  0  0  0  0
   -6.1332  -10.1854  -61.1426 N   0  0  0  0  0  0  0  0  0  0  0  0
   -5.2986  -10.3405  -62.2204 C   0  0  0  0  0  0  0  0  0  0  0  0
   -3.8976  -10.8115  -62.0169 C   0  0  0  0  0  0  0  0  0  0  0  0
   -3.1851   -9.7644  -61.3275 O   0  0  0  0  0  0  0  0  0  0  0  0
   -1.7538  -10.1524  -61.2471 C   0  0  0  0  0  0  0  0  0  0  0  0
   -1.1448   -9.1325  -60.6098 C   0  0  0  0  0  0  0  0  0  0  0  0
   -0.4771   -8.0777  -60.3328 C   0  0  0  0  0  0  0  0  0  0  0  0
    0.2563   -7.0199  -60.0470 C   0  0  0  0  0  0  0  0  0  0  0  0
    0.6506   -6.8230  -58.6616 N   0  0  0  0  0  0  0  0  0  0  0  0
    0.0664   -5.6584  -57.9716 C   0  0  0  0  0  0  0  0  0  0  0  0
    0.5092   -5.5871  -56.5716 C   0  0  0  0  0  0  0  0  0  0  0  0
    0.1194   -4.6087  -55.7413 C   0  0  0  0  0  0  0  0  0  0  0  0
   -1.2152   -4.5852  -55.2681 C   0  0  0  0  0  0  0  0  0  0  0  0
   -1.7424   -5.0790  -54.1505 N   0  0  0  0  0  0  0  0  0  0  0  0
   -3.0579   -4.7987  -53.9408 C   0  0  0  0  0  0  0  0  0  0  0  0
   -4.2852   -4.5428  -53.7606 C   0  0  0  0  0  0  0  0  0  0  0  0
   -5.6768   -4.2330  -53.5719 C   0  0  0  0  0  0  0  0  0  0  0  0
   -6.5474   -4.5312  -54.5539 C   0  0  0  0  0  0  0  0  0  0  0  0
   -7.9699   -4.1971  -54.3133 C   0  0  0  0  0  0  0  0  0  0  0  0
   -8.9591   -4.8955  -55.0047 N   0  0  0  0  0  0  0  0  0  0  0  0
   -9.3590   -4.4163  -56.2844 C   0  0  0  0  0  0  0  0  0  0  0  0
  -10.4570   -5.2926  -56.8650 C   0  0  0  0  0  0  0  0  0  0  0  0
  -10.0289   -6.5986  -57.0136 O   0  0  0  0  0  0  0  0  0  0  0  0
    0.6894   -6.1177  -61.0031 N   0  0  0  0  0  0  0  0  0  0  0  0
   -0.1827   -5.4032  -61.8397 C   0  0  0  0  0  0  0  0  0  0  0  0
   -0.1646   -5.5632  -63.2533 C   0  0  0  0  0  0  0  0  0  0  0  0
   -1.0862   -4.8556  -63.9805 C   0  0  0  0  0  0  0  0  0  0  0  0
   -2.0169   -4.0191  -63.4666 C   0  0  0  0  0  0  0  0  0  0  0  0
   -3.1978   -3.1286  -64.4476 Cl  0  0  0  0  0  0  0  0  0  0  0  0
   -2.0554   -3.8437  -62.0801 C   0  0  0  0  0  0  0  0  0  0  0  0
   -3.2301   -2.7657  -61.4022 Cl  0  0  0  0  0  0  0  0  0  0  0  0
   -1.1296   -4.5529  -61.3432 C   0  0  0  0  0  0  0  0  0  0  0  0
  1  2  1  0
  2  3  1  0
  3  4  1  0
  4  5  1  0
  5  6  1  0
  6  7  1  0
  7  8  1  0
  8  9  1  0
  9 10  2  0
 10 11  2  0
 11 12  2  0
 12 13  1  0
 13 14  1  0
 14 15  1  0
 15 16  2  3
 16 17  1  0
 17 18  2  3
 18 19  1  0
 19 20  3  0
 20 21  1  0
 21 22  2  3
 22 23  1  0
 23 24  1  0
 24 25  1  0
 25 26  1  0
 26 27  1  0
 12 28  1  0
 28 29  1  0
 29 30  2  0
 30 31  1  0
 31 32  2  0
 32 33  1  0
 32 34  1  0
 34 35  1  0
 34 36  2  0
 36 29  1  0
M  END
$$$$
