
     RDKit          3D

 36 36  0  0  0  0  0  0  0  0999 V2000
   11.0659   27.4191   -1.0017 C   0  0  0  0  0  0  0  0  0  0  0  0
   10.6099   28.7263   -0.2951 C   0  0  0  0  0  0  0  0  0  0  0  0
    9.3013   29.0585   -0.9043 C   0  0  0  0  0  0  0  0  0  0  0  0
    8.6208   30.2899   -0.3967 C   0  0  0  0  0  0  0  0  0  0  0  0
    7.3914   30.6705   -0.9147 N   0  0  0  0  0  0  0  0  0  0  0  0
    6.6978   31.7989   -0.5571 C   0  0  0  0  0  0  0  0  0  0  0  0
    5.2382   31.7140   -0.2594 C   0  0  0  0  0  0  0  0  0  0  0  0
    4.5582   31.4456   -1.5024 O   0  0  0  0  0  0  0  0  0  0  0  0
    3.0969   31.4295   -1.2376 C   0  0  0  0  0  0  0  0  0  0  0  0
    2.5290   31.0609   -2.4033 C   0  0  0  0  0  0  0  0  0  0  0  0
    2.2028   30.9600   -3.6357 C   0  0  0  0  0  0  0  0  0  0  0  0
    1.8183   30.8768   -4.8940 C   0  0  0  0  0  0  0  0  0  0  0  0
    1.0308   29.7195   -5.2868 N   0  0  0  0  0  0  0  0  0  0  0  0
    1.4584   29.0192   -6.5118 C   0  0  0  0  0  0  0  0  0  0  0  0
    0.6131   27.8472   -6.7820 C   0  0  0  0  0  0  0  0  0  0  0  0
    0.8787   26.9792   -7.7692 C   0  0  0  0  0  0  0  0  0  0  0  0
    2.2186   26.5936   -8.0177 C   0  0  0  0  0  0  0  0  0  0  0  0
    2.7279   25.8042   -8.9602 N   0  0  0  0  0  0  0  0  0  0  0  0
    4.0856   25.7079   -8.9836 C   0  0  0  0  0  0  0  0  0  0  0  0
    5.3498   25.6343   -9.0041 C   0  0  0  0  0  0  0  0  0  0  0  0
    6.7840   25.5375   -9.0486 C   0  0  0  0  0  0  0  0  0  0  0  0
    7.5183   26.4986   -8.4585 C   0  0  0  0  0  0  0  0  0  0  0  0
    8.9811   26.4596   -8.6856 C   0  0  0  0  0  0  0  0  0  0  0  0
    9.7802   27.4682   -8.1484 N   0  0  0  0  0  0  0  0  0  0  0  0
   11.1819   27.4264   -8.3943 C   0  0  0  0  0  0  0  0  0  0  0  0
   11.5655   28.4223   -9.4766 C   0  0  0  0  0  0  0  0  0  0  0  0
   12.9165   28.3557   -9.7618 O   0  0  0  0  0  0  0  0  0  0  0  0
    2.1005   31.8486   -5.8382 N   0  0  0  0  0  0  0  0  0  0  0  0
    3.4062   32.2386   -6.1763 C   0  0  0  0  0  0  0  0  0  0  0  0
    3.6640   33.1654   -7.2245 C   0  0  0  0  0  0  0  0  0  0  0  0
    4.9695   33.5181   -7.4483 C   0  0  0  0  0  0  0  0  0  0  0  0
    6.0361   33.0617   -6.7525 C   0  0  0  0  0  0  0  0  0  0  0  0
    7.7112   33.5533   -7.0724 Cl  0  0  0  0  0  0  0  0  0  0  0  0
    5.8100   32.1494   -5.7177 C   0  0  0  0  0  0  0  0  0  0  0  0
    7.1635   31.5413   -4.8233 Cl  0  0  0  0  0  0  0  0  0  0  0  0
    4.4979   31.7902   -5.4884 C   0  0  0  0  0  0  0  0  0  0  0  0
  1  2  1  0
  2  3  1  0
  3  4  1  0
  4  5  1  0
  5  6  1  0
  6  7  1  0
  7  8  1  0
  8  9  1  0
  9 10  2  0
 10 11  2  0
 11 12  2  0
 12 13  1  0
 13 14  1  0
 14 15  1  0
 15 16  2  3
 16 17  1  0
 17 18  2  3
 18 19  1  0
 19 20  3  0
 20 21  1  0
 21 22  2  3
 22 23  1  0
 23 24  1  0
 24 25  1  0
 25 26  1  0
 26 27  1  0
 12 28  1  0
 28 29  1  0
 29 30  2  0
 30 31  1  0
 31 32  2  0
 32 33  1  0
 32 34  1  0
 34 35  1  0
 34 36  2  0
 36 29  1  0
M  END
$$$$
