
     RDKit          3D

 36 36  0  0  0  0  0  0  0  0999 V2000
   22.8144  -29.0857  -33.0243 C   0  0  0  0  0  0  0  0  0  0  0  0
   22.1291  -28.6997  -31.6835 C   0  0  0  0  0  0  0  0  0  0  0  0
   23.1962  -28.0703  -30.8715 C   0  0  0  0  0  0  0  0  0  0  0  0
   23.5579  -26.6613  -31.2194 C   0  0  0  0  0  0  0  0  0  0  0  0
   23.4349  -25.6559  -30.2715 N   0  0  0  0  0  0  0  0  0  0  0  0
   23.7335  -24.3330  -30.4786 C   0  0  0  0  0  0  0  0  0  0  0  0
   23.4087  -23.3222  -29.4302 C   0  0  0  0  0  0  0  0  0  0  0  0
   21.9787  -23.3354  -29.2451 O   0  0  0  0  0  0  0  0  0  0  0  0
   21.7002  -23.4833  -27.7938 C   0  0  0  0  0  0  0  0  0  0  0  0
   20.3893  -23.7871  -27.7130 C   0  0  0  0  0  0  0  0  0  0  0  0
   19.2368  -24.1680  -27.3104 C   0  0  0  0  0  0  0  0  0  0  0  0
   18.0579  -24.6088  -26.9180 C   0  0  0  0  0  0  0  0  0  0  0  0
   17.3778  -23.8764  -25.8622 N   0  0  0  0  0  0  0  0  0  0  0  0
   18.2015  -22.9384  -25.0777 C   0  0  0  0  0  0  0  0  0  0  0  0
   17.3967  -22.2303  -24.0718 C   0  0  0  0  0  0  0  0  0  0  0  0
   17.3872  -22.5829  -22.7779 C   0  0  0  0  0  0  0  0  0  0  0  0
   18.2317  -21.9067  -21.8640 C   0  0  0  0  0  0  0  0  0  0  0  0
   18.5575  -20.6191  -21.7817 N   0  0  0  0  0  0  0  0  0  0  0  0
   19.2757  -20.2578  -20.6833 C   0  0  0  0  0  0  0  0  0  0  0  0
   19.9325  -19.9112  -19.6573 C   0  0  0  0  0  0  0  0  0  0  0  0
   20.6994  -19.5252  -18.5036 C   0  0  0  0  0  0  0  0  0  0  0  0
   21.3492  -20.4763  -17.8078 C   0  0  0  0  0  0  0  0  0  0  0  0
   21.3785  -20.3277  -16.3347 C   0  0  0  0  0  0  0  0  0  0  0  0
   20.2905  -19.7422  -15.6882 N   0  0  0  0  0  0  0  0  0  0  0  0
   20.3003  -19.6794  -14.2658 C   0  0  0  0  0  0  0  0  0  0  0  0
   19.0675  -18.9525  -13.7537 C   0  0  0  0  0  0  0  0  0  0  0  0
   19.0261  -17.6505  -14.2162 O   0  0  0  0  0  0  0  0  0  0  0  0
   17.4326  -25.7061  -27.4841 N   0  0  0  0  0  0  0  0  0  0  0  0
   17.8575  -26.3023  -28.6821 C   0  0  0  0  0  0  0  0  0  0  0  0
   17.1559  -27.3933  -29.2666 C   0  0  0  0  0  0  0  0  0  0  0  0
   17.6230  -27.8769  -30.4611 C   0  0  0  0  0  0  0  0  0  0  0  0
   18.6947  -27.4009  -31.1354 C   0  0  0  0  0  0  0  0  0  0  0  0
   19.2592  -28.0540  -32.6861 Cl  0  0  0  0  0  0  0  0  0  0  0  0
   19.4021  -26.3294  -30.5821 C   0  0  0  0  0  0  0  0  0  0  0  0
   20.7865  -25.7137  -31.4223 Cl  0  0  0  0  0  0  0  0  0  0  0  0
   18.9369  -25.8391  -29.3795 C   0  0  0  0  0  0  0  0  0  0  0  0
  1  2  1  0
  2  3  1  0
  3  4  1  0
  4  5  1  0
  5  6  1  0
  6  7  1  0
  7  8  1  0
  8  9  1  0
  9 10  2  0
 10 11  2  0
 11 12  2  0
 12 13  1  0
 13 14  1  0
 14 15  1  0
 15 16  2  3
 16 17  1  0
 17 18  2  3
 18 19  1  0
 19 20  3  0
 20 21  1  0
 21 22  2  3
 22 23  1  0
 23 24  1  0
 24 25  1  0
 25 26  1  0
 26 27  1  0
 12 28  1  0
 28 29  1  0
 29 30  2  0
 30 31  1  0
 31 32  2  0
 32 33  1  0
 32 34  1  0
 34 35  1  0
 34 36  2  0
 36 29  1  0
M  END
$$$$
