
     RDKit          3D

 36 36  0  0  0  0  0  0  0  0999 V2000
  -18.6782   -9.6507   -0.8344 C   0  0  0  0  0  0  0  0  0  0  0  0
  -18.2799   -8.3436   -0.0935 C   0  0  0  0  0  0  0  0  0  0  0  0
  -16.8574   -8.1207   -0.4412 C   0  0  0  0  0  0  0  0  0  0  0  0
  -16.5647   -7.7650   -1.8642 C   0  0  0  0  0  0  0  0  0  0  0  0
  -15.5580   -8.4243   -2.5544 N   0  0  0  0  0  0  0  0  0  0  0  0
  -15.2154   -8.1951   -3.8629 C   0  0  0  0  0  0  0  0  0  0  0  0
  -14.0523   -8.9098   -4.4654 C   0  0  0  0  0  0  0  0  0  0  0  0
  -14.1041  -10.2781   -4.0133 O   0  0  0  0  0  0  0  0  0  0  0  0
  -12.7112  -10.7562   -3.8211 C   0  0  0  0  0  0  0  0  0  0  0  0
  -12.8220  -12.0710   -3.5450 C   0  0  0  0  0  0  0  0  0  0  0  0
  -12.5877  -13.2807   -3.2030 C   0  0  0  0  0  0  0  0  0  0  0  0
  -12.3263  -14.5097   -2.8036 C   0  0  0  0  0  0  0  0  0  0  0  0
  -13.1572  -15.5827   -3.3249 N   0  0  0  0  0  0  0  0  0  0  0  0
  -14.6065  -15.4701   -3.0784 C   0  0  0  0  0  0  0  0  0  0  0  0
  -15.2203  -14.4538   -3.9452 C   0  0  0  0  0  0  0  0  0  0  0  0
  -15.9173  -14.7711   -5.0462 C   0  0  0  0  0  0  0  0  0  0  0  0
  -16.8565  -13.8483   -5.5677 C   0  0  0  0  0  0  0  0  0  0  0  0
  -17.6324  -13.9244   -6.6461 N   0  0  0  0  0  0  0  0  0  0  0  0
  -18.5527  -12.9312   -6.7862 C   0  0  0  0  0  0  0  0  0  0  0  0
  -19.4144  -12.0141   -6.9298 C   0  0  0  0  0  0  0  0  0  0  0  0
  -20.4093  -10.9866   -7.0800 C   0  0  0  0  0  0  0  0  0  0  0  0
  -20.8663  -10.3594   -5.9805 C   0  0  0  0  0  0  0  0  0  0  0  0
  -21.0570   -8.8939   -6.0748 C   0  0  0  0  0  0  0  0  0  0  0  0
  -21.6013   -8.2074   -4.9899 N   0  0  0  0  0  0  0  0  0  0  0  0
  -21.8246   -6.8070   -5.1163 C   0  0  0  0  0  0  0  0  0  0  0  0
  -22.5668   -6.2716   -3.9027 C   0  0  0  0  0  0  0  0  0  0  0  0
  -23.7368   -6.9739   -3.6817 O   0  0  0  0  0  0  0  0  0  0  0  0
  -11.2863  -14.8223   -1.9454 N   0  0  0  0  0  0  0  0  0  0  0  0
  -10.1134  -14.0572   -1.8451 C   0  0  0  0  0  0  0  0  0  0  0  0
   -8.9098  -14.5966   -1.3116 C   0  0  0  0  0  0  0  0  0  0  0  0
   -7.8057  -13.7844   -1.2980 C   0  0  0  0  0  0  0  0  0  0  0  0
   -7.7620  -12.5115   -1.7538 C   0  0  0  0  0  0  0  0  0  0  0  0
   -6.3052  -11.4982   -1.7238 Cl  0  0  0  0  0  0  0  0  0  0  0  0
   -8.9317  -11.9574   -2.2825 C   0  0  0  0  0  0  0  0  0  0  0  0
   -8.9013  -10.3238   -2.8586 Cl  0  0  0  0  0  0  0  0  0  0  0  0
  -10.0463  -12.7701   -2.2980 C   0  0  0  0  0  0  0  0  0  0  0  0
  1  2  1  0
  2  3  1  0
  3  4  1  0
  4  5  1  0
  5  6  1  0
  6  7  1  0
  7  8  1  0
  8  9  1  0
  9 10  2  0
 10 11  2  0
 11 12  2  0
 12 13  1  0
 13 14  1  0
 14 15  1  0
 15 16  2  3
 16 17  1  0
 17 18  2  3
 18 19  1  0
 19 20  3  0
 20 21  1  0
 21 22  2  3
 22 23  1  0
 23 24  1  0
 24 25  1  0
 25 26  1  0
 26 27  1  0
 12 28  1  0
 28 29  1  0
 29 30  2  0
 30 31  1  0
 31 32  2  0
 32 33  1  0
 32 34  1  0
 34 35  1  0
 34 36  2  0
 36 29  1  0
M  END
$$$$
