
     RDKit          3D

 19 20  0  0  0  0  0  0  0  0999 V2000
  152.5295  147.5483  143.0920 C   0  0  0  0  0  0  0  0  0  0  0  0
  151.9615  148.4683  142.2063 O   0  0  0  0  0  0  0  0  0  0  0  0
  152.8921  149.3252  141.6718 C   0  0  0  0  0  0  0  0  0  0  0  0
  152.4045  150.6857  141.7305 N   0  0  0  0  0  0  0  0  0  0  0  0
  152.6146  151.5287  142.8437 C   0  0  0  0  0  0  0  0  0  0  0  0
  153.0613  150.8205  143.9090 N   0  0  0  0  0  0  0  0  0  0  0  0
  153.4885  151.3566  145.1298 C   0  0  0  0  0  0  0  0  0  0  0  0
  152.9579  152.3119  145.9224 N   0  0  0  0  0  0  0  0  0  0  0  0
  153.5260  153.6445  145.5497 C   0  0  0  0  0  0  0  0  0  0  0  0
  153.2025  154.4082  144.5432 C   0  0  0  0  0  0  0  0  0  0  0  0
  152.5941  154.0860  143.2094 C   0  0  0  0  0  0  0  0  0  0  0  0
  152.3087  152.9305  142.5894 C   0  0  0  0  0  0  0  0  0  0  0  0
  154.6204  154.4234  146.0438 C   0  0  0  0  0  0  0  0  0  0  0  0
  155.8688  153.6418  146.2959 C   0  0  0  0  0  0  0  0  0  0  0  0
  156.3377  152.4131  146.3300 C   0  0  0  0  0  0  0  0  0  0  0  0
  157.8171  152.2024  147.2337 Cl  0  0  0  0  0  0  0  0  0  0  0  0
  155.9252  151.1078  145.7726 C   0  0  0  0  0  0  0  0  0  0  0  0
  157.0744  149.8445  145.8183 Cl  0  0  0  0  0  0  0  0  0  0  0  0
  154.7601  150.7070  145.1924 C   0  0  0  0  0  0  0  0  0  0  0  0
  1  2  1  0
  2  3  1  0
  3  4  1  0
  4  5  1  0
  5  6  2  0
  6  7  1  0
  7  8  2  0
  8  9  1  0
  9 10  2  0
 10 11  1  0
 11 12  2  0
  9 13  1  0
 13 14  1  0
 14 15  2  0
 15 16  1  0
 15 17  1  0
 17 18  1  0
 17 19  2  0
 12  5  1  0
 19  7  1  0
M  END
$$$$
