
     RDKit          3D

 19 19  0  0  0  0  0  0  0  0999 V2000
  150.0251  154.2952  152.3532 C   0  0  0  0  0  0  0  0  0  0  0  0
  150.7714  155.0171  151.2491 C   0  0  2  0  0  0  0  0  0  0  0  0
  151.9817  154.3992  150.9901 O   0  0  0  0  0  0  0  0  0  0  0  0
  150.9946  156.4525  151.6128 C   0  0  0  0  0  0  0  0  0  0  0  0
  151.7997  156.5989  152.8893 C   0  0  1  0  0  0  0  0  0  0  0  0
  152.5180  157.9315  152.8327 C   0  0  0  0  0  0  0  0  0  0  0  0
  150.8258  156.7064  153.9899 N   0  0  0  0  0  0  0  0  0  0  0  0
  151.2015  156.5097  155.3327 C   0  0  0  0  0  0  0  0  0  0  0  0
  152.3159  155.9588  155.5412 O   0  0  0  0  0  0  0  0  0  0  0  0
  150.3839  156.9028  156.4739 C   0  0  0  0  0  0  0  0  0  0  0  0
  149.7832  155.9460  157.2647 C   0  0  0  0  0  0  0  0  0  0  0  0
  149.9965  154.6106  156.9197 O   0  0  0  0  0  0  0  0  0  0  0  0
  148.9930  156.2539  158.3650 C   0  0  0  0  0  0  0  0  0  0  0  0
  148.4076  155.1587  159.1294 C   0  0  0  0  0  0  0  0  0  0  0  0
  147.9580  154.1582  158.5214 O   0  0  0  0  0  0  0  0  0  0  0  0
  148.3275  155.1786  160.5070 O   0  0  0  0  0  0  0  0  0  0  0  0
  148.7894  157.5711  158.6959 C   0  0  0  0  0  0  0  0  0  0  0  0
  149.3716  158.5559  157.9317 C   0  0  0  0  0  0  0  0  0  0  0  0
  150.1618  158.2156  156.8301 C   0  0  0  0  0  0  0  0  0  0  0  0
  2  1  1  1
  2  3  1  0
  2  4  1  0
  4  5  1  0
  5  6  1  6
  5  7  1  0
  7  8  1  0
  8  9  2  0
  8 10  1  0
 10 11  2  0
 11 12  1  0
 11 13  1  0
 13 14  1  0
 14 15  2  0
 14 16  1  0
 13 17  2  0
 17 18  1  0
 18 19  2  0
 19 10  1  0
M  END
$$$$
