
     RDKit          3D

 29 32  0  0  0  0  0  0  0  0999 V2000
  171.3111  138.8869  156.4222 C   0  0  0  0  0  0  0  0  0  0  0  0
  170.1314  139.8058  156.6409 C   0  0  0  0  0  0  0  0  0  0  0  0
  169.1413  139.1057  157.5437 C   0  0  0  0  0  0  0  0  0  0  0  0
  167.8487  139.7757  157.4820 N   0  0  0  0  0  0  0  0  0  0  0  0
  167.6540  141.0643  158.0348 C   0  0  0  0  0  0  0  0  0  0  0  0
  168.6694  141.7931  158.5237 N   0  0  0  0  0  0  0  0  0  0  0  0
  168.5354  142.9950  159.0468 C   0  0  0  0  0  0  0  0  0  0  0  0
  169.6400  143.7647  159.5684 N   0  0  0  0  0  0  0  0  0  0  0  0
  170.6254  143.3353  160.5117 C   0  0  0  0  0  0  0  0  0  0  0  0
  170.5884  143.6243  161.8520 C   0  0  0  0  0  0  0  0  0  0  0  0
  171.0731  145.0080  162.2896 C   0  0  0  0  0  0  0  0  0  0  0  0
  171.1112  146.1803  161.5513 C   0  0  0  0  0  0  0  0  0  0  0  0
  171.1074  147.3301  162.4515 C   0  0  0  0  0  0  0  0  0  0  0  0
  172.7354  147.9225  162.8781 Cl  0  0  0  0  0  0  0  0  0  0  0  0
  171.1102  146.1567  160.1273 N   0  0  0  0  0  0  0  0  0  0  0  0
  172.3344  146.0240  159.3683 C   0  0  0  0  0  0  0  0  0  0  0  0
  173.1167  144.7782  159.7207 C   0  0  0  0  0  0  0  0  0  0  0  0
  172.5093  143.6242  158.9312 C   0  0  0  0  0  0  0  0  0  0  0  0
  171.8651  142.7122  160.0135 C   0  0  0  0  0  0  0  0  0  0  0  0
  170.0360  146.1574  159.2723 O   0  0  0  0  0  0  0  0  0  0  0  0
  169.4246  145.0826  158.8930 C   0  0  0  0  0  0  0  0  0  0  0  0
  167.6545  145.3456  158.9544 Cl  0  0  0  0  0  0  0  0  0  0  0  0
  167.2956  143.5145  159.0877 N   0  0  0  0  0  0  0  0  0  0  0  0
  166.2126  142.8861  158.6336 C   0  0  0  0  0  0  0  0  0  0  0  0
  164.9606  143.4914  158.7114 C   0  0  0  0  0  0  0  0  0  0  0  0
  163.8528  142.8316  158.2392 C   0  0  0  0  0  0  0  0  0  0  0  0
  164.0106  141.5765  157.6958 C   0  0  0  0  0  0  0  0  0  0  0  0
  165.2631  140.9743  157.6194 C   0  0  0  0  0  0  0  0  0  0  0  0
  166.3872  141.6042  158.0807 C   0  0  0  0  0  0  0  0  0  0  0  0
  1  2  1  0
  2  3  1  0
  3  4  1  0
  4  5  1  0
  5  6  2  0
  6  7  1  0
  7  8  1  0
  8  9  1  0
  9 10  2  0
 10 11  1  0
 11 12  2  0
 12 13  1  0
 13 14  1  0
 12 15  1  0
 15 16  1  0
 16 17  1  0
 17 18  1  0
 18 19  1  0
 15 20  1  0
 20 21  1  0
 21 22  1  0
  7 23  2  0
 23 24  1  0
 24 25  2  0
 25 26  1  0
 26 27  2  0
 27 28  1  0
 28 29  2  0
 29  5  1  0
 21  8  1  0
 29 24  1  0
 19  9  1  0
M  END
$$$$
