
     RDKit          3D

 17 18  0  0  0  0  0  0  0  0999 V2000
   43.3405   18.8254   28.3101 N   0  0  0  0  0  0  0  0  0  0  0  0
   43.3577   19.5182   27.1335 O   0  0  0  0  0  0  0  0  0  0  0  0
   43.2915   20.8754   27.4587 C   0  0  0  0  0  0  0  0  0  0  0  0
   44.5660   21.2832   28.1926 C   0  0  0  0  0  0  0  0  0  0  0  0
   44.6508   22.7300   28.3926 C   0  0  0  0  0  0  0  0  0  0  0  0
   44.8067   23.2199   29.6501 N   0  0  0  0  0  0  0  0  0  0  0  0
   44.8812   24.5253   29.9453 C   0  0  0  0  0  0  0  0  0  0  0  0
   45.0516   24.9804   31.3181 C   0  0  0  0  0  0  0  0  0  0  0  0
   44.0555   25.0650   32.1689 C   0  0  0  0  0  0  0  0  0  0  0  0
   44.2473   25.5191   33.4614 O   0  0  0  0  0  1  0  0  0  0  0  0
   44.7939   25.4061   28.9106 N   0  0  0  0  0  0  0  0  0  0  0  0
   44.6396   25.0259   27.6332 C   0  0  0  0  0  0  0  0  0  0  0  0
   44.5561   25.9191   26.5861 C   0  0  0  0  0  0  0  0  0  0  0  0
   44.4021   25.5109   25.2715 C   0  0  0  0  0  0  0  0  0  0  0  0
   44.3344   24.1530   25.0442 C   0  0  0  0  0  0  0  0  0  0  0  0
   44.4178   23.2358   26.0989 C   0  0  0  0  0  0  0  0  0  0  0  0
   44.5701   23.6659   27.3970 C   0  0  0  0  0  0  0  0  0  0  0  0
  1  2  1  0
  2  3  1  0
  3  4  1  0
  4  5  1  0
  5  6  2  0
  6  7  1  0
  7  8  1  0
  8  9  2  3
  9 10  1  0
  7 11  2  0
 11 12  1  0
 12 13  2  0
 13 14  1  0
 14 15  2  0
 15 16  1  0
 16 17  2  0
 17  5  1  0
 17 12  1  0
M  CHG  1  10  -1
M  END
$$$$
