
     RDKit          3D

 22 23  0  0  0  0  0  0  0  0999 V2000
  169.5542  144.1066  149.1557 C   0  0  0  0  0  0  0  0  0  0  0  0
  169.7482  144.4881  150.5861 C   0  0  0  0  0  0  0  0  0  0  0  0
  168.9059  143.6047  151.5298 C   0  0  0  0  0  0  0  0  0  0  0  0
  169.5919  143.4499  152.8414 C   0  0  1  0  0  0  0  0  0  0  0  0
  169.3614  144.7225  153.6897 C   0  0  0  0  0  0  0  0  0  0  0  0
  169.2655  142.2666  153.6634 C   0  0  1  0  0  0  0  0  0  0  0  0
  169.3403  140.9154  153.0606 C   0  0  0  0  0  0  0  0  0  0  0  0
  170.7103  140.3257  152.8788 C   0  0  0  0  0  0  0  0  0  0  0  0
  169.9203  142.3534  154.9001 O   0  0  0  0  0  0  0  0  0  0  0  0
  169.6590  141.8449  156.1060 C   0  0  0  0  0  0  0  0  0  0  0  0
  168.7198  140.9053  156.3976 C   0  0  0  0  0  0  0  0  0  0  0  0
  168.5355  140.4472  157.7017 C   0  0  0  0  0  0  0  0  0  0  0  0
  167.5823  139.5066  157.9391 C   0  0  0  0  0  0  0  0  0  0  0  0
  167.4094  139.0600  159.2395 C   0  0  0  0  0  0  0  0  0  0  0  0
  168.2044  139.5815  160.2405 C   0  0  0  0  0  0  0  0  0  0  0  0
  168.0585  139.1817  161.4426 O   0  0  0  0  0  0  0  0  0  0  0  0
  169.1176  140.4891  159.9838 O   0  0  0  0  0  0  0  0  0  0  0  0
  169.2829  140.9145  158.7476 C   0  0  0  0  0  0  0  0  0  0  0  0
  170.2386  141.8681  158.4622 C   0  0  0  0  0  0  0  0  0  0  0  0
  170.4253  142.3240  157.1786 C   0  0  0  0  0  0  0  0  0  0  0  0
  171.3929  143.2748  156.9565 O   0  0  0  0  0  0  0  0  0  0  0  0
  172.0047  143.9817  158.0058 C   0  0  0  0  0  0  0  0  0  0  0  0
  1  2  1  0
  2  3  1  0
  3  4  1  0
  4  5  1  1
  4  6  1  0
  6  7  1  6
  7  8  1  0
  6  9  1  0
  9 10  1  0
 10 11  2  0
 11 12  1  0
 12 13  1  0
 13 14  2  0
 14 15  1  0
 15 16  2  0
 15 17  1  0
 17 18  1  0
 18 19  1  0
 19 20  2  0
 20 21  1  0
 21 22  1  0
 20 10  1  0
 18 12  2  0
M  END
$$$$
