
     RDKit          3D

  9  9  0  0  0  0  0  0  0  0999 V2000
  155.7013  150.1579  175.3669 O   0  0  0  0  0  0  0  0  0  0  0  0
  156.5526  150.0364  176.4542 C   0  0  0  0  0  0  0  0  0  0  0  0
  156.1193  149.4283  177.6240 C   0  0  0  0  0  0  0  0  0  0  0  0
  156.9720  149.3135  178.6953 C   0  0  0  0  0  0  0  0  0  0  0  0
  158.2694  149.7825  178.6698 C   0  0  0  0  0  0  0  0  0  0  0  0
  158.7108  150.3892  177.5112 C   0  0  0  0  0  0  0  0  0  0  0  0
  159.9821  150.8812  177.4028 F   0  0  0  0  0  0  0  0  0  0  0  0
  157.8552  150.5032  176.4393 C   0  0  0  0  0  0  0  0  0  0  0  0
  158.2616  151.1000  175.2743 F   0  0  0  0  0  0  0  0  0  0  0  0
  1  2  1  0
  2  3  2  0
  3  4  1  0
  4  5  2  0
  5  6  1  0
  6  7  1  0
  6  8  2  0
  8  9  1  0
  8  2  1  0
M  END
$$$$
