
     RDKit          3D

  9  9  0  0  0  0  0  0  0  0999 V2000
  159.4298  150.8218  170.3374 O   0  0  0  0  0  0  0  0  0  0  0  0
  159.0867  150.9974  171.6690 C   0  0  0  0  0  0  0  0  0  0  0  0
  157.7590  150.9372  172.0686 C   0  0  0  0  0  0  0  0  0  0  0  0
  157.4310  151.1127  173.3912 C   0  0  0  0  0  0  0  0  0  0  0  0
  158.3750  151.3519  174.3688 C   0  0  0  0  0  0  0  0  0  0  0  0
  159.6987  151.4138  173.9824 C   0  0  0  0  0  0  0  0  0  0  0  0
  160.6965  151.6467  174.8880 F   0  0  0  0  0  0  0  0  0  0  0  0
  160.0253  151.2377  172.6571 C   0  0  0  0  0  0  0  0  0  0  0  0
  161.3297  151.2930  172.2399 F   0  0  0  0  0  0  0  0  0  0  0  0
  1  2  1  0
  2  3  2  0
  3  4  1  0
  4  5  2  0
  5  6  1  0
  6  7  1  0
  6  8  2  0
  8  9  1  0
  8  2  1  0
M  END
$$$$
