
     RDKit          3D

 21 23  0  0  0  0  0  0  0  0999 V2000
    4.3531   30.4019   -0.4507 Cl  0  0  0  0  0  0  0  0  0  0  0  0
    3.9541   31.2161   -1.9577 C   0  0  0  0  0  0  0  0  0  0  0  0
    2.8967   32.0748   -2.0613 C   0  0  0  0  0  0  0  0  0  0  0  0
    2.5873   32.7188   -3.2600 C   0  0  0  0  0  0  0  0  0  0  0  0
    3.3575   32.4964   -4.3857 C   0  0  0  0  0  0  0  0  0  0  0  0
    3.0401   33.1601   -5.6349 N   0  0  0  0  0  0  0  0  0  0  0  0
    3.6844   32.5063   -7.1309 S   0  0  0  0  0  0  0  0  0  0  0  0
    3.0679   30.8418   -7.3519 C   0  0  0  0  0  0  0  0  0  0  0  0
    2.3631   30.1225   -6.5542 N   0  0  0  0  0  0  0  0  0  0  0  0
    2.1135   28.8736   -7.1525 C   0  0  0  0  0  0  0  0  0  0  0  0
    2.8529   27.7939   -6.3863 C   0  0  0  0  0  0  0  0  0  0  0  0
    2.8466   26.5316   -6.8151 C   0  0  0  0  0  0  0  0  0  0  0  0
    2.1878   25.9547   -8.0094 C   0  0  0  0  0  0  0  0  0  0  0  0
    1.1500   26.5519   -8.5898 C   0  0  0  0  0  0  0  0  0  0  0  0
    0.3957   27.7961   -8.3162 C   0  0  0  0  0  0  0  0  0  0  0  0
    0.7720   28.5215   -7.2316 O   0  0  0  0  0  0  0  0  0  0  0  0
    2.7924   28.9341   -8.4590 C   0  0  0  0  0  0  0  0  0  0  0  0
    3.3375   30.0791   -8.5601 N   0  0  0  0  0  0  0  0  0  0  0  0
    4.4110   31.6446   -4.2871 C   0  0  0  0  0  0  0  0  0  0  0  0
    4.7262   30.9947   -3.0811 C   0  0  0  0  0  0  0  0  0  0  0  0
    6.0917   29.9153   -2.9949 Cl  0  0  0  0  0  0  0  0  0  0  0  0
  1  2  1  0
  2  3  2  0
  3  4  1  0
  4  5  2  0
  5  6  1  0
  6  7  1  0
  7  8  1  0
  8  9  2  0
  9 10  1  0
 10 11  1  0
 11 12  2  0
 12 13  1  0
 13 14  2  0
 14 15  1  0
 15 16  1  0
 10 17  1  0
 17 18  2  0
  5 19  1  0
 19 20  2  0
 20 21  1  0
 20  2  1  0
 18  8  1  0
 16 10  1  0
M  END
$$$$
