
     RDKit          3D

 16 17  0  0  0  0  0  0  0  0999 V2000
  230.0915  153.5485  121.6458 C   0  0  0  0  0  0  0  0  0  0  0  0
  230.7083  152.2453  122.1697 C   0  0  0  0  0  0  0  0  0  0  0  0
  231.9924  152.5032  122.8766 C   0  0  0  0  0  0  0  0  0  0  0  0
  232.3413  151.6900  123.8965 N   0  0  0  0  0  0  0  0  0  0  0  0
  233.5070  151.9042  124.5302 C   0  0  0  0  0  0  0  0  0  0  0  0
  233.8636  151.0640  125.5776 C   0  0  0  0  0  0  0  0  0  0  0  0
  235.0580  151.2822  126.2278 C   0  0  0  0  0  0  0  0  0  0  0  0
  235.8772  152.3294  125.8286 C   0  0  0  0  0  0  0  0  0  0  0  0
  235.5205  153.1566  124.7925 C   0  0  0  0  0  0  0  0  0  0  0  0
  236.3778  154.2944  124.3583 C   0  0  0  0  0  0  0  0  0  0  0  0
  234.3244  152.9418  124.1353 C   0  0  0  0  0  0  0  0  0  0  0  0
  233.9879  153.7872  123.0931 C   0  0  0  0  0  0  0  0  0  0  0  0
  234.6873  154.7449  122.6918 O   0  0  0  0  0  0  0  0  0  0  0  0
  232.7674  153.5493  122.4409 C   0  0  0  0  0  0  0  0  0  0  0  0
  232.3906  154.4407  121.3357 C   0  0  0  0  0  0  0  0  0  0  0  0
  233.2204  155.6588  121.1530 C   0  0  0  0  0  0  0  0  0  0  0  0
  1  2  1  0
  2  3  1  0
  3  4  1  0
  4  5  1  0
  5  6  2  0
  6  7  1  0
  7  8  2  0
  8  9  1  0
  9 10  1  0
  9 11  2  0
 11 12  1  0
 12 13  2  0
 12 14  1  0
 14 15  1  0
 15 16  1  0
 14  3  2  0
 11  5  1  0
M  END
$$$$
