
     RDKit          3D

 20 20  0  0  0  0  0  0  0  0999 V2000
  115.0284  118.2017   92.8990 Cl  0  0  0  0  0  0  0  0  0  0  0  0
  115.5182  117.5487   91.3676 C   0  0  0  0  0  0  0  0  0  0  0  0
  114.7298  116.6725   90.7288 C   0  0  0  0  0  0  0  0  0  0  0  0
  115.0429  116.1954   89.3951 C   0  0  0  0  0  0  0  0  0  0  0  0
  114.3284  115.2697   88.8426 C   0  0  0  0  0  0  0  0  0  0  0  0
  114.5862  114.6777   87.5798 N   0  0  0  0  0  0  0  0  0  0  0  0
  113.4770  114.3319   86.7734 C   0  0  0  0  0  0  0  0  0  0  0  0
  113.5939  114.5264   85.5069 N   0  0  0  0  0  0  0  0  0  0  0  0
  114.1823  113.4717   84.7338 C   0  0  0  0  0  0  0  0  0  0  0  0
  115.4254  112.9442   85.0650 C   0  0  0  0  0  0  0  0  0  0  0  0
  116.0326  111.9455   84.3689 C   0  0  0  0  0  0  0  0  0  0  0  0
  115.4086  111.4116   83.2782 C   0  0  0  0  0  0  0  0  0  0  0  0
  114.1737  111.9071   82.9161 C   0  0  0  0  0  0  0  0  0  0  0  0
  113.5487  112.9326   83.6298 C   0  0  0  0  0  0  0  0  0  0  0  0
  112.2269  113.4624   83.2445 C   0  0  0  0  0  0  0  0  0  0  0  0
  110.7554  112.4807   84.4429 I   0  0  0  0  0  0  0  0  0  0  0  0
  113.2008  114.7815   89.5063 O   0  0  0  0  0  0  0  0  0  0  0  0
  112.0911  115.5729   89.7372 C   0  0  0  0  0  0  0  0  0  0  0  0
  111.2165  115.2324   90.6659 C   0  0  0  0  0  0  0  0  0  0  0  0
  109.7571  116.1695   90.8728 Cl  0  0  0  0  0  0  0  0  0  0  0  0
  1  2  1  0
  2  3  2  3
  3  4  1  0
  4  5  2  3
  5  6  1  0
  6  7  1  0
  7  8  2  3
  8  9  1  0
  9 10  2  0
 10 11  1  0
 11 12  2  0
 12 13  1  0
 13 14  2  0
 14 15  1  0
 15 16  1  0
  5 17  1  0
 17 18  1  0
 18 19  2  3
 19 20  1  0
 14  9  1  0
M  END
$$$$
