
     RDKit          3D

 13 13  0  0  0  0  0  0  0  0999 V2000
  148.1657  153.5044  160.5907 O   0  0  0  0  0  1  0  0  0  0  0  0
  148.3971  153.5082  161.9277 N   0  0  0  0  0  0  0  0  0  0  0  0
  148.9209  154.5291  162.5057 C   0  0  0  0  0  0  0  0  0  0  0  0
  149.2931  154.3095  163.8932 N   0  0  0  0  0  0  0  0  0  0  0  0
  149.9991  155.4248  164.4861 C   0  0  0  0  0  0  0  0  0  0  0  0
  150.4817  156.4453  163.7000 C   0  0  0  0  0  0  0  0  0  0  0  0
  151.1284  157.5519  164.2578 C   0  0  0  0  0  0  0  0  0  0  0  0
  151.2865  157.6282  165.6236 C   0  0  0  0  0  0  0  0  0  0  0  0
  152.0703  159.0008  166.3850 Cl  0  0  0  0  0  0  0  0  0  0  0  0
  150.8069  156.6112  166.4145 C   0  0  0  0  0  0  0  0  0  0  0  0
  150.9745  156.7030  167.8288 N   0  0  0  0  0  0  0  0  0  0  0  0
  150.4900  155.4502  168.9118 Cl  0  0  0  0  0  0  0  0  0  0  0  0
  150.1701  155.5238  165.8453 C   0  0  0  0  0  0  0  0  0  0  0  0
  1  2  1  0
  2  3  2  3
  3  4  1  0
  4  5  1  0
  5  6  2  0
  6  7  1  0
  7  8  2  0
  8  9  1  0
  8 10  1  0
 10 11  1  0
 11 12  1  0
 10 13  2  0
 13  5  1  0
M  CHG  1   1  -1
M  END
$$$$
