
     RDKit          3D

 22 23  0  0  0  0  0  0  0  0999 V2000
  165.4788  155.6768  167.6864 C   0  0  0  0  0  0  0  0  0  0  0  0
  164.8929  155.5434  169.0713 C   0  0  0  0  0  0  0  0  0  0  0  0
  165.9248  156.0224  170.0777 C   0  0  0  0  0  0  0  0  0  0  0  0
  164.5746  154.1676  169.3989 N   0  0  0  0  0  0  0  0  0  0  0  0
  163.5532  153.6227  168.5324 C   0  0  0  0  0  0  0  0  0  0  0  0
  164.2070  154.1178  170.7867 C   0  0  0  0  0  0  0  0  0  0  0  0
  163.0599  153.1685  171.0499 C   0  0  0  0  0  0  0  0  0  0  0  0
  162.8055  153.0861  172.5388 C   0  0  0  0  0  0  0  0  0  0  0  0
  161.7846  152.1086  172.8530 N   0  0  0  0  0  0  0  0  0  0  0  0
  161.6249  151.9509  174.2832 C   0  0  0  0  0  0  0  0  0  0  0  0
  160.2505  151.5165  174.6392 C   0  0  0  0  0  0  0  0  0  0  0  0
  159.1341  151.6979  173.8524 C   0  0  0  0  0  0  0  0  0  0  0  0
  158.0772  151.1563  174.5441 C   0  0  0  0  0  0  0  0  0  0  0  0
  158.5975  150.6640  175.7318 C   0  0  0  0  0  0  0  0  0  0  0  0
  157.7868  150.0048  176.7533 C   0  0  0  0  0  0  0  0  0  0  0  0
  158.2607  149.8287  178.0357 C   0  0  0  0  0  0  0  0  0  0  0  0
  157.5076  149.2047  179.0238 C   0  0  0  0  0  0  0  0  0  0  0  0
  156.2369  148.7444  178.7076 C   0  0  0  0  0  0  0  0  0  0  0  0
  155.7407  148.9089  177.4318 C   0  0  0  0  0  0  0  0  0  0  0  0
  154.1335  148.3096  177.0889 Cl  0  0  0  0  0  0  0  0  0  0  0  0
  156.5198  149.5300  176.4910 C   0  0  0  0  0  0  0  0  0  0  0  0
  159.8681  150.9024  175.7315 O   0  0  0  0  0  0  0  0  0  0  0  0
  1  2  1  0
  2  3  1  0
  2  4  1  0
  4  5  1  0
  4  6  1  0
  6  7  1  0
  7  8  1  0
  8  9  1  0
  9 10  1  0
 10 11  1  0
 11 12  2  0
 12 13  1  0
 13 14  2  0
 14 15  1  0
 15 16  2  0
 16 17  1  0
 17 18  2  0
 18 19  1  0
 19 20  1  0
 19 21  2  0
 14 22  1  0
 22 11  1  0
 21 15  1  0
M  END
$$$$
