
     RDKit          3D

 22 23  0  0  0  0  0  0  0  0999 V2000
  157.6178  152.4790  146.6888 C   0  0  0  0  0  0  0  0  0  0  0  0
  156.3611  151.6545  146.8298 C   0  0  0  0  0  0  0  0  0  0  0  0
  156.6783  150.2233  146.4321 C   0  0  0  0  0  0  0  0  0  0  0  0
  155.3015  152.1215  145.9577 N   0  0  0  0  0  0  0  0  0  0  0  0
  155.0253  153.5292  146.1402 C   0  0  0  0  0  0  0  0  0  0  0  0
  154.1470  151.2973  146.1850 C   0  0  0  0  0  0  0  0  0  0  0  0
  152.9489  151.7401  145.3758 C   0  0  0  0  0  0  0  0  0  0  0  0
  151.7156  151.0112  145.8615 C   0  0  0  0  0  0  0  0  0  0  0  0
  151.7384  149.6132  145.4852 N   0  0  0  0  0  0  0  0  0  0  0  0
  150.5696  148.9137  145.9755 C   0  0  0  0  0  0  0  0  0  0  0  0
  150.5439  147.4998  145.5233 C   0  0  0  0  0  0  0  0  0  0  0  0
  149.5307  146.6033  145.7845 C   0  0  0  0  0  0  0  0  0  0  0  0
  149.8965  145.4181  145.1927 C   0  0  0  0  0  0  0  0  0  0  0  0
  151.1259  145.6435  144.5915 C   0  0  0  0  0  0  0  0  0  0  0  0
  151.8592  144.6192  143.8508 C   0  0  0  0  0  0  0  0  0  0  0  0
  153.0510  144.9100  143.2222 C   0  0  0  0  0  0  0  0  0  0  0  0
  153.7661  143.9521  142.5121 C   0  0  0  0  0  0  0  0  0  0  0  0
  153.2625  142.6611  142.4343 C   0  0  0  0  0  0  0  0  0  0  0  0
  152.0723  142.3458  143.0548 C   0  0  0  0  0  0  0  0  0  0  0  0
  151.4845  140.7034  142.9242 Cl  0  0  0  0  0  0  0  0  0  0  0  0
  151.4028  143.3233  143.7433 C   0  0  0  0  0  0  0  0  0  0  0  0
  151.4529  146.8736  144.8174 O   0  0  0  0  0  0  0  0  0  0  0  0
  1  2  1  0
  2  3  1  0
  2  4  1  0
  4  5  1  0
  4  6  1  0
  6  7  1  0
  7  8  1  0
  8  9  1  0
  9 10  1  0
 10 11  1  0
 11 12  2  0
 12 13  1  0
 13 14  2  0
 14 15  1  0
 15 16  2  0
 16 17  1  0
 17 18  2  0
 18 19  1  0
 19 20  1  0
 19 21  2  0
 14 22  1  0
 22 11  1  0
 21 15  1  0
M  END
$$$$
