
     RDKit          3D

 22 23  0  0  0  0  0  0  0  0999 V2000
  -17.5920  -13.3708   -5.3075 C   0  0  0  0  0  0  0  0  0  0  0  0
  -16.5969  -12.4092   -5.9492 C   0  0  0  0  0  0  0  0  0  0  0  0
  -16.4944  -11.0910   -5.2615 C   0  0  0  0  0  0  0  0  0  0  0  0
  -15.4681  -12.9948   -6.7090 C   0  0  0  0  0  0  0  0  0  0  0  0
  -14.1160  -12.3418   -6.6935 C   0  0  0  0  0  0  0  0  0  0  0  0
  -13.7380  -11.5803   -7.6039 O   0  0  0  0  0  0  0  0  0  0  0  0
  -13.2612  -12.5856   -5.6462 O   0  0  0  0  0  0  0  0  0  0  0  0
  -13.4351  -12.2258   -4.3035 C   0  0  0  0  0  0  0  0  0  0  0  0
  -12.2088  -11.9421   -3.5533 C   0  0  0  0  0  0  0  0  0  0  0  0
  -11.6786  -12.8451   -2.6674 C   0  0  0  0  0  0  0  0  0  0  0  0
  -10.5108  -12.5951   -1.9599 C   0  0  0  0  0  0  0  0  0  0  0  0
   -9.8182  -11.4185   -2.1107 C   0  0  0  0  0  0  0  0  0  0  0  0
   -8.6425  -11.1076   -1.4312 O   0  0  0  0  0  0  0  0  0  0  0  0
   -7.3534  -11.1806   -1.9461 C   0  0  0  0  0  0  0  0  0  0  0  0
   -6.4432  -11.4354   -0.9120 F   0  0  0  0  0  0  0  0  0  0  0  0
   -7.2673  -12.1950   -2.9057 F   0  0  0  0  0  0  0  0  0  0  0  0
  -10.3556  -10.4922   -3.0139 C   0  0  0  0  0  0  0  0  0  0  0  0
   -9.6807   -9.3388   -3.1644 F   0  0  0  0  0  0  0  0  0  0  0  0
  -11.5059  -10.7533   -3.7030 C   0  0  0  0  0  0  0  0  0  0  0  0
  -16.5548  -12.3442   -7.4577 C   0  0  0  0  0  0  0  0  0  0  0  0
  -16.3407  -11.1281   -8.0752 F   0  0  0  0  0  0  0  0  0  0  0  0
  -17.5231  -13.1047   -8.0797 F   0  0  0  0  0  0  0  0  0  0  0  0
  1  2  1  0
  2  3  1  0
  2  4  1  0
  4  5  1  0
  5  6  2  0
  5  7  1  0
  7  8  1  0
  8  9  1  0
  9 10  2  0
 10 11  1  0
 11 12  2  0
 12 13  1  0
 13 14  1  0
 14 15  1  0
 14 16  1  0
 12 17  1  0
 17 18  1  0
 17 19  2  0
  4 20  1  0
 20 21  1  0
 20 22  1  0
 20  2  1  0
 19  9  1  0
M  END
$$$$
