
     RDKit          3D

 18 19  0  0  0  0  0  0  0  0999 V2000
    2.5892   30.8837   -1.7346 C   0  0  0  0  0  0  0  0  0  0  0  0
    3.6197   30.2393   -2.5932 C   0  0  0  0  0  0  0  0  0  0  0  0
    4.9575   30.5370   -2.4331 C   0  0  0  0  0  0  0  0  0  0  0  0
    5.9062   29.9341   -3.2345 C   0  0  0  0  0  0  0  0  0  0  0  0
    5.5741   29.0222   -4.2162 C   0  0  0  0  0  0  0  0  0  0  0  0
    4.2401   28.7198   -4.3822 C   0  0  0  0  0  0  0  0  0  0  0  0
    3.8440   27.7337   -5.4389 C   0  0  0  0  0  0  0  0  0  0  0  0
    2.4705   27.3290   -5.2920 N   0  0  0  0  0  0  0  0  0  0  0  0
    1.5436   28.3692   -5.6829 C   0  0  0  0  0  0  0  0  0  0  0  0
    1.8239   28.9199   -7.0472 C   0  0  1  0  0  0  0  0  0  0  0  0
    0.6874   28.9569   -7.8499 O   0  0  0  0  0  0  0  0  0  0  0  0
    2.4555   30.2642   -7.0098 C   0  0  0  0  0  0  0  0  0  0  0  0
    1.7784   31.3730   -6.5421 C   0  0  0  0  0  0  0  0  0  0  0  0
    2.3775   32.6170   -6.5129 C   0  0  0  0  0  0  0  0  0  0  0  0
    3.6696   32.8079   -6.9461 C   0  0  0  0  0  0  0  0  0  0  0  0
    4.3555   31.7081   -7.4152 C   0  0  0  0  0  0  0  0  0  0  0  0
    3.7505   30.4614   -7.4428 C   0  0  0  0  0  0  0  0  0  0  0  0
    3.3047   29.3294   -3.5749 C   0  0  0  0  0  0  0  0  0  0  0  0
  1  2  1  0
  2  3  2  0
  3  4  1  0
  4  5  2  0
  5  6  1  0
  6  7  1  0
  7  8  1  0
  8  9  1  0
  9 10  1  0
 10 11  1  6
 10 12  1  0
 12 13  2  0
 13 14  1  0
 14 15  2  0
 15 16  1  0
 16 17  2  0
  6 18  2  0
 18  2  1  0
 17 12  1  0
M  END
$$$$
