
     RDKit          3D

 18 19  0  0  0  0  0  0  0  0999 V2000
    3.3514   31.6062   -1.1300 C   0  0  0  0  0  0  0  0  0  0  0  0
    2.8167   31.3294   -2.4908 C   0  0  0  0  0  0  0  0  0  0  0  0
    2.8392   32.3026   -3.4688 C   0  0  0  0  0  0  0  0  0  0  0  0
    2.3407   32.0363   -4.7282 C   0  0  0  0  0  0  0  0  0  0  0  0
    1.8056   30.8100   -5.0683 C   0  0  0  0  0  0  0  0  0  0  0  0
    1.7797   29.8330   -4.0969 C   0  0  0  0  0  0  0  0  0  0  0  0
    1.2057   28.4897   -4.4318 C   0  0  0  0  0  0  0  0  0  0  0  0
    2.2401   27.5030   -4.5996 N   0  0  0  0  0  0  0  0  0  0  0  0
    1.8791   26.4824   -5.5600 C   0  0  0  0  0  0  0  0  0  0  0  0
    2.3045   26.8166   -6.9564 C   0  0  1  0  0  0  0  0  0  0  0  0
    1.5702   26.1259   -7.9161 O   0  0  0  0  0  0  0  0  0  0  0  0
    2.2580   28.2739   -7.2422 C   0  0  0  0  0  0  0  0  0  0  0  0
    1.0991   28.8956   -7.6634 C   0  0  0  0  0  0  0  0  0  0  0  0
    1.0698   30.2512   -7.9256 C   0  0  0  0  0  0  0  0  0  0  0  0
    2.1876   31.0406   -7.7802 C   0  0  0  0  0  0  0  0  0  0  0  0
    3.3503   30.4308   -7.3602 C   0  0  0  0  0  0  0  0  0  0  0  0
    3.3755   29.0700   -7.0981 C   0  0  0  0  0  0  0  0  0  0  0  0
    2.2808   30.1134   -2.8445 C   0  0  0  0  0  0  0  0  0  0  0  0
  1  2  1  0
  2  3  2  0
  3  4  1  0
  4  5  2  0
  5  6  1  0
  6  7  1  0
  7  8  1  0
  8  9  1  0
  9 10  1  0
 10 11  1  6
 10 12  1  0
 12 13  2  0
 13 14  1  0
 14 15  2  0
 15 16  1  0
 16 17  2  0
  6 18  2  0
 18  2  1  0
 17 12  1  0
M  END
$$$$
