
     RDKit          3D

 25 27  0  0  0  0  0  0  0  0999 V2000
    9.6557   29.0061   -8.5128 C   0  0  0  0  0  0  0  0  0  0  0  0
    8.2653   28.5338   -8.8727 C   0  0  0  0  0  0  0  0  0  0  0  0
    7.4878   28.5522   -7.6847 O   0  0  0  0  0  0  0  0  0  0  0  0
    6.4198   29.4100   -7.5029 C   0  0  0  0  0  0  0  0  0  0  0  0
    5.8388   29.8651   -8.5085 O   0  0  0  0  0  0  0  0  0  0  0  0
    5.9629   29.7898   -6.1783 C   0  0  0  0  0  0  0  0  0  0  0  0
    6.8791   29.7546   -5.1302 C   0  0  0  0  0  0  0  0  0  0  0  0
    6.5012   30.0940   -3.9067 N   0  0  0  0  0  0  0  0  0  0  0  0
    5.2222   30.4791   -3.6570 C   0  0  0  0  0  0  0  0  0  0  0  0
    4.9445   30.8089   -2.3478 C   0  0  0  0  0  0  0  0  0  0  0  0
    6.0028   30.7392   -1.2853 C   0  0  0  0  0  0  0  0  0  0  0  0
    3.6699   31.2038   -2.0427 C   0  0  0  0  0  0  0  0  0  0  0  0
    3.3365   31.5623   -0.6614 C   0  0  0  0  0  0  0  0  0  0  0  0
    2.7058   31.2626   -3.0342 C   0  0  0  0  0  0  0  0  0  0  0  0
    3.0088   30.9274   -4.3369 C   0  0  0  0  0  0  0  0  0  0  0  0
    4.2916   30.5243   -4.6736 C   0  0  0  0  0  0  0  0  0  0  0  0
    4.6458   30.1801   -5.9532 C   0  0  0  0  0  0  0  0  0  0  0  0
    3.6899   30.2292   -6.9832 N   0  0  0  0  0  0  0  0  0  0  0  0
    2.7692   29.1831   -7.2573 C   0  0  0  0  0  0  0  0  0  0  0  0
    2.8908   27.9491   -6.6535 C   0  0  0  0  0  0  0  0  0  0  0  0
    1.9699   26.9470   -6.9458 C   0  0  0  0  0  0  0  0  0  0  0  0
    0.9266   27.1410   -7.8268 C   0  0  0  0  0  0  0  0  0  0  0  0
    0.0008   26.1544   -8.1292 O   0  0  0  0  0  0  0  0  0  0  0  0
    0.8049   28.3795   -8.4324 C   0  0  0  0  0  0  0  0  0  0  0  0
    1.7284   29.3739   -8.1349 C   0  0  0  0  0  0  0  0  0  0  0  0
  1  2  1  0
  2  3  1  0
  3  4  1  0
  4  5  2  0
  4  6  1  0
  6  7  2  0
  7  8  1  0
  8  9  2  0
  9 10  1  0
 10 11  1  0
 10 12  2  0
 12 13  1  0
 12 14  1  0
 14 15  2  0
 15 16  1  0
 16 17  2  0
 17 18  1  0
 18 19  1  0
 19 20  2  0
 20 21  1  0
 21 22  2  0
 22 23  1  0
 22 24  1  0
 24 25  2  0
 17  6  1  0
 25 19  1  0
 16  9  1  0
M  END
$$$$
