
     RDKit          3D

 21 22  0  0  0  0  0  0  0  0999 V2000
   -2.4888   51.9332   14.7820 O   0  0  0  0  0  0  0  0  0  0  0  0
   -1.3793   52.2538   15.2977 C   0  0  0  0  0  0  0  0  0  0  0  0
   -0.6500   53.2454   14.6095 N   0  0  0  0  0  0  0  0  0  0  0  0
   -1.3256   54.1562   13.7189 C   0  0  0  0  0  0  0  0  0  0  0  0
   -1.0054   55.4930   13.8381 C   0  0  0  0  0  0  0  0  0  0  0  0
   -1.6575   56.3611   12.9803 C   0  0  0  0  0  0  0  0  0  0  0  0
   -2.5786   55.9086   12.0565 C   0  0  0  0  0  0  0  0  0  0  0  0
   -2.8860   54.5685   11.9518 C   0  0  0  0  0  0  0  0  0  0  0  0
   -3.8799   54.0688   10.9568 C   0  0  0  0  0  0  0  0  0  0  0  0
   -5.1163   54.6650   11.1389 F   0  0  0  0  0  0  0  0  0  0  0  0
   -4.0032   52.7051   11.1389 F   0  0  0  0  0  0  0  0  0  0  0  0
   -3.4779   54.2843    9.6646 F   0  0  0  0  0  0  0  0  0  0  0  0
   -2.2435   53.7012   12.7989 C   0  0  0  0  0  0  0  0  0  0  0  0
   -0.9465   51.5954   16.5294 C   0  0  0  0  0  0  0  0  0  0  0  0
    0.2829   51.7088   17.1067 C   0  0  0  0  0  0  0  0  0  0  0  0
    1.2248   52.4820   16.5383 F   0  0  0  0  0  0  0  0  0  0  0  0
    0.6618   51.0694   18.2777 C   0  0  0  0  0  0  0  0  0  0  0  0
   -0.2674   50.2636   18.9018 C   0  0  0  0  0  0  0  0  0  0  0  0
   -1.5442   50.1135   18.3497 C   0  0  0  0  0  0  0  0  0  0  0  0
   -1.8514   50.7662   17.2025 C   0  0  0  0  0  0  0  0  0  0  0  0
   -3.0926   50.6134   16.6760 F   0  0  0  0  0  0  0  0  0  0  0  0
  1  2  2  0
  2  3  1  0
  3  4  1  0
  4  5  2  0
  5  6  1  0
  6  7  2  0
  7  8  1  0
  8  9  1  0
  9 10  1  0
  9 11  1  0
  9 12  1  0
  8 13  2  0
  2 14  1  0
 14 15  2  0
 15 16  1  0
 15 17  1  0
 17 18  2  0
 18 19  1  0
 19 20  2  0
 20 21  1  0
 13  4  1  0
 20 14  1  0
M  END
$$$$
