
     RDKit          3D

 22 23  0  0  0  0  0  0  0  0999 V2000
   35.8966   26.6594   13.5410 C   0  0  0  0  0  0  0  0  0  0  0  0
   36.4932   26.6050   12.1834 C   0  0  0  0  0  0  0  0  0  0  0  0
   35.9658   27.4458   11.1802 C   0  0  0  0  0  0  0  0  0  0  0  0
   36.4856   27.4820    9.9046 C   0  0  0  0  0  0  0  0  0  0  0  0
   35.9731   28.2868    8.9687 F   0  0  0  0  0  0  0  0  0  0  0  0
   37.5616   26.6652    9.5982 C   0  0  0  0  0  0  0  0  0  0  0  0
   38.0890   25.8404   10.5580 C   0  0  0  0  0  0  0  0  0  0  0  0
   37.5503   25.8113   11.8558 C   0  0  0  0  0  0  0  0  0  0  0  0
   38.1607   24.8624   12.7819 C   0  0  0  0  0  0  0  0  0  0  0  0
   39.3047   24.1121   12.7120 C   0  0  0  0  0  0  0  0  0  0  0  0
   39.4426   23.3503   13.8879 C   0  0  0  0  0  0  0  0  0  0  0  0
   38.3404   23.6957   14.6226 C   0  0  0  0  0  0  0  0  0  0  0  0
   38.0010   23.1570   15.9857 C   0  0  0  0  0  0  0  0  0  0  0  0
   37.4007   21.8421   15.8196 N   0  0  0  0  0  0  0  0  0  0  0  0
   36.2262   21.8943   15.0037 C   0  0  0  0  0  0  0  0  0  0  0  0
   35.6678   20.5049   14.8144 C   0  0  0  0  0  0  0  0  0  0  0  0
   34.1396   20.5563   14.6845 C   0  0  0  0  0  0  0  0  0  0  0  0
   33.6728   19.1401   14.4916 C   0  0  0  0  0  0  0  0  0  0  0  0
   32.2553   18.9980   14.4123 N   0  0  0  0  0  0  0  0  0  0  0  0
   31.7155   17.8704   15.1109 C   0  0  0  0  0  0  0  0  0  0  0  0
   31.8423   19.0759   13.0300 C   0  0  0  0  0  0  0  0  0  0  0  0
   37.6325   24.5600   13.9611 O   0  0  0  0  0  0  0  0  0  0  0  0
  1  2  1  0
  2  3  2  0
  3  4  1  0
  4  5  1  0
  4  6  2  0
  6  7  1  0
  7  8  2  0
  8  9  1  0
  9 10  2  0
 10 11  1  0
 11 12  2  0
 12 13  1  0
 13 14  1  0
 14 15  1  0
 15 16  1  0
 16 17  1  0
 17 18  1  0
 18 19  1  0
 19 20  1  0
 19 21  1  0
 12 22  1  0
  8  2  1  0
 22  9  1  0
M  END
$$$$
