
     RDKit          3D

 28 31  0  0  0  0  0  0  0  0999 V2000
   15.1161   41.8703   26.4152 O   0  0  0  0  0  0  0  0  0  0  0  0
   14.4624   41.9732   25.3567 C   0  0  0  0  0  0  0  0  0  0  0  0
   14.9035   43.0185   24.3823 C   0  0  0  0  0  0  0  0  0  0  0  0
   14.2985   42.7883   22.7300 S   0  0  0  0  0  0  0  0  0  0  0  0
   13.0364   43.9139   22.2285 C   0  0  0  0  0  0  0  0  0  0  0  0
   12.8654   45.1337   22.7958 N   0  0  0  0  0  0  0  0  0  0  0  0
   11.8980   45.9713   22.3911 C   0  0  0  0  0  0  0  0  0  0  0  0
   11.0288   45.6318   21.3767 C   0  0  0  0  0  0  0  0  0  0  0  0
   11.1869   44.4218   20.8029 N   0  0  0  0  0  0  0  0  0  0  0  0
   10.4889   43.8527   19.8099 N   0  0  0  0  0  0  0  0  0  0  0  0
   10.9784   42.6302   19.5375 C   0  0  0  0  0  0  0  0  0  0  0  0
   10.4898   41.6826   18.5142 C   0  0  0  0  0  0  0  0  0  0  0  0
   11.0701   40.4442   18.4239 C   0  0  0  0  0  0  0  0  0  0  0  0
   10.6455   39.5439   17.4954 C   0  0  0  0  0  0  0  0  0  0  0  0
    9.6346   39.8610   16.6392 C   0  0  0  0  0  0  0  0  0  0  0  0
    9.0463   41.1091   16.7269 C   0  0  0  0  0  0  0  0  0  0  0  0
    9.4678   42.0286   17.6630 C   0  0  0  0  0  0  0  0  0  0  0  0
   12.0272   42.4583   20.4162 C   0  0  0  0  0  0  0  0  0  0  0  0
   12.1583   43.5875   21.2132 C   0  0  0  0  0  0  0  0  0  0  0  0
   13.3722   41.1333   25.1252 N   0  0  0  0  0  0  0  0  0  0  0  0
   12.9340   40.0834   25.9228 C   0  0  0  0  0  0  0  0  0  0  0  0
   13.5748   39.5703   27.0213 C   0  0  0  0  0  0  0  0  0  0  0  0
   13.0515   38.5016   27.7798 C   0  0  0  0  0  0  0  0  0  0  0  0
   13.7323   38.0492   28.8413 F   0  0  0  0  0  0  0  0  0  0  0  0
   11.8529   37.9276   27.4323 C   0  0  0  0  0  0  0  0  0  0  0  0
   11.2049   38.4393   26.3295 C   0  0  0  0  0  0  0  0  0  0  0  0
   11.7061   39.4798   25.5837 C   0  0  0  0  0  0  0  0  0  0  0  0
   10.9901   39.9212   24.5025 F   0  0  0  0  0  0  0  0  0  0  0  0
  1  2  2  0
  2  3  1  0
  3  4  1  0
  4  5  1  0
  5  6  2  0
  6  7  1  0
  7  8  2  0
  8  9  1  0
  9 10  1  0
 10 11  2  0
 11 12  1  0
 12 13  2  0
 13 14  1  0
 14 15  2  0
 15 16  1  0
 16 17  2  0
 11 18  1  0
 18 19  2  0
  2 20  1  0
 20 21  1  0
 21 22  2  0
 22 23  1  0
 23 24  1  0
 23 25  2  0
 25 26  1  0
 26 27  2  0
 27 28  1  0
 19  5  1  0
 27 21  1  0
 19  9  1  0
 17 12  1  0
M  END
$$$$
