
     RDKit          3D

 28 31  0  0  0  0  0  0  0  0999 V2000
   30.2602   52.5380   34.0159 O   0  0  0  0  0  0  0  0  0  0  0  0
   29.6358   52.4431   32.9392 C   0  0  0  0  0  0  0  0  0  0  0  0
   28.3295   53.1649   32.8431 C   0  0  0  0  0  0  0  0  0  0  0  0
   27.0279   52.2347   32.0751 S   0  0  0  0  0  0  0  0  0  0  0  0
   26.6767   50.6761   32.8223 C   0  0  0  0  0  0  0  0  0  0  0  0
   27.2765   50.2503   33.9617 N   0  0  0  0  0  0  0  0  0  0  0  0
   26.9868   49.0601   34.5099 C   0  0  0  0  0  0  0  0  0  0  0  0
   26.0632   48.2101   33.9404 C   0  0  0  0  0  0  0  0  0  0  0  0
   25.4584   48.6203   32.8071 N   0  0  0  0  0  0  0  0  0  0  0  0
   24.5350   47.9971   32.0613 N   0  0  0  0  0  0  0  0  0  0  0  0
   24.1953   48.7597   31.0072 C   0  0  0  0  0  0  0  0  0  0  0  0
   23.2145   48.4338   29.9509 C   0  0  0  0  0  0  0  0  0  0  0  0
   22.5604   47.2303   29.9995 C   0  0  0  0  0  0  0  0  0  0  0  0
   21.6489   46.8958   29.0456 C   0  0  0  0  0  0  0  0  0  0  0  0
   21.3720   47.7545   28.0251 C   0  0  0  0  0  0  0  0  0  0  0  0
   22.0294   48.9696   27.9721 C   0  0  0  0  0  0  0  0  0  0  0  0
   22.9542   49.3190   28.9324 C   0  0  0  0  0  0  0  0  0  0  0  0
   24.9578   49.9023   31.1287 C   0  0  0  0  0  0  0  0  0  0  0  0
   25.7534   49.8140   32.2631 C   0  0  0  0  0  0  0  0  0  0  0  0
   30.1628   51.6873   31.8909 N   0  0  0  0  0  0  0  0  0  0  0  0
   31.3477   50.9619   31.8890 C   0  0  0  0  0  0  0  0  0  0  0  0
   32.0291   50.5083   32.9892 C   0  0  0  0  0  0  0  0  0  0  0  0
   33.2279   49.7701   32.8936 C   0  0  0  0  0  0  0  0  0  0  0  0
   33.8418   49.3593   34.0112 F   0  0  0  0  0  0  0  0  0  0  0  0
   33.7632   49.4754   31.6633 C   0  0  0  0  0  0  0  0  0  0  0  0
   33.0828   49.9287   30.5546 C   0  0  0  0  0  0  0  0  0  0  0  0
   31.9145   50.6486   30.6368 C   0  0  0  0  0  0  0  0  0  0  0  0
   31.3088   51.0576   29.4782 F   0  0  0  0  0  0  0  0  0  0  0  0
  1  2  2  0
  2  3  1  0
  3  4  1  0
  4  5  1  0
  5  6  2  0
  6  7  1  0
  7  8  2  0
  8  9  1  0
  9 10  1  0
 10 11  2  0
 11 12  1  0
 12 13  2  0
 13 14  1  0
 14 15  2  0
 15 16  1  0
 16 17  2  0
 11 18  1  0
 18 19  2  0
  2 20  1  0
 20 21  1  0
 21 22  2  0
 22 23  1  0
 23 24  1  0
 23 25  2  0
 25 26  1  0
 26 27  2  0
 27 28  1  0
 19  5  1  0
 27 21  1  0
 19  9  1  0
 17 12  1  0
M  END
$$$$
