
     RDKit          3D

 32 35  0  0  0  0  0  0  0  0999 V2000
   -7.7619  -15.5867   -2.0022 C   0  0  0  0  0  0  0  0  0  0  0  0
   -8.8277  -15.2830   -2.8779 O   0  0  0  0  0  0  0  0  0  0  0  0
  -10.0305  -15.9584   -2.7771 C   0  0  0  0  0  0  0  0  0  0  0  0
  -10.0124  -17.2037   -2.1618 C   0  0  0  0  0  0  0  0  0  0  0  0
  -11.1886  -17.9213   -2.0336 C   0  0  0  0  0  0  0  0  0  0  0  0
  -11.1959  -19.1694   -1.4239 O   0  0  0  0  0  0  0  0  0  0  0  0
  -10.1024  -19.5129   -0.6013 C   0  0  0  0  0  0  0  0  0  0  0  0
  -12.3719  -17.3715   -2.5299 C   0  0  0  0  0  0  0  0  0  0  0  0
  -12.4061  -16.1485   -3.1393 C   0  0  0  0  0  0  0  0  0  0  0  0
  -13.5838  -15.5740   -3.6784 N   0  0  0  0  0  0  0  0  0  0  0  0
  -14.2241  -14.4744   -3.1041 C   0  0  0  0  0  0  0  0  0  0  0  0
  -13.6384  -14.0084   -2.0715 O   0  0  0  0  0  0  0  0  0  0  0  0
  -15.4362  -13.8335   -3.5239 N   0  0  0  0  0  0  0  0  0  0  0  0
  -15.8009  -12.6618   -2.7493 C   0  0  0  0  0  0  0  0  0  0  0  0
  -15.1766  -11.3802   -3.0589 C   0  0  0  0  0  0  0  0  0  0  0  0
  -13.7929  -11.2266   -2.8727 C   0  0  0  0  0  0  0  0  0  0  0  0
  -13.0932  -10.0862   -3.2377 C   0  0  0  0  0  0  0  0  0  0  0  0
  -11.6047   -9.9750   -3.0147 C   0  0  0  0  0  0  0  0  0  0  0  0
  -13.7992   -9.0604   -3.8101 C   0  0  0  0  0  0  0  0  0  0  0  0
  -15.1444   -9.1793   -4.0017 C   0  0  0  0  0  0  0  0  0  0  0  0
  -15.8274  -10.3402   -3.6219 C   0  0  0  0  0  0  0  0  0  0  0  0
  -17.3156  -10.2455   -3.7764 C   0  0  0  0  0  0  0  0  0  0  0  0
  -16.0870  -14.3531   -4.6365 C   0  0  0  0  0  0  0  0  0  0  0  0
  -17.3066  -13.7879   -5.0025 C   0  0  0  0  0  0  0  0  0  0  0  0
  -18.0753  -14.2450   -6.0505 C   0  0  0  0  0  0  0  0  0  0  0  0
  -17.6651  -15.3179   -6.8121 C   0  0  0  0  0  0  0  0  0  0  0  0
  -16.4654  -15.8895   -6.4640 C   0  0  0  0  0  0  0  0  0  0  0  0
  -15.7167  -15.4208   -5.4207 C   0  0  0  0  0  0  0  0  0  0  0  0
  -14.2338  -16.2720   -5.1051 S   0  0  0  0  0  6  0  0  0  0  0  0
  -13.2522  -16.1936   -6.2437 O   0  0  0  0  0  0  0  0  0  0  0  0
  -14.5429  -17.7424   -4.8940 O   0  0  0  0  0  0  0  0  0  0  0  0
  -11.2056  -15.4497   -3.2528 C   0  0  0  0  0  0  0  0  0  0  0  0
  1  2  1  0
  2  3  1  0
  3  4  2  0
  4  5  1  0
  5  6  1  0
  6  7  1  0
  5  8  2  0
  8  9  1  0
  9 10  1  0
 10 11  1  0
 11 12  2  0
 11 13  1  0
 13 14  1  0
 14 15  1  0
 15 16  2  0
 16 17  1  0
 17 18  1  0
 17 19  2  0
 19 20  1  0
 20 21  2  0
 21 22  1  0
 13 23  1  0
 23 24  2  0
 24 25  1  0
 25 26  2  0
 26 27  1  0
 27 28  2  0
 28 29  1  0
 29 30  2  0
 29 31  2  0
  9 32  2  0
 32  3  1  0
 29 10  1  0
 21 15  1  0
 28 23  1  0
M  END
$$$$
