
     RDKit          3D

 16 17  0  0  0  0  0  0  0  0999 V2000
  157.0613  152.1779  174.1899 C   0  0  0  0  0  0  0  0  0  0  0  0
  157.9276  151.1975  173.4898 C   0  0  0  0  0  0  0  0  0  0  0  0
  158.3097  151.3975  172.1925 N   0  0  0  0  0  0  0  0  0  0  0  0
  159.0959  150.5051  171.5615 C   0  0  0  0  0  0  0  0  0  0  0  0
  159.4873  150.7291  170.2025 N   0  0  0  0  0  0  0  0  0  0  0  0
  159.4952  149.4133  172.2390 N   0  0  0  0  0  0  0  0  0  0  0  0
  159.1405  149.1752  173.5255 C   0  0  0  0  0  0  0  0  0  0  0  0
  158.3355  150.0820  174.1824 C   0  0  0  0  0  0  0  0  0  0  0  0
  157.8951  149.9243  175.5640 C   0  0  0  0  0  0  0  0  0  0  0  0
  158.7677  150.1586  176.6146 C   0  0  0  0  0  0  0  0  0  0  0  0
  158.4018  150.0245  177.9140 C   0  0  0  0  0  0  0  0  0  0  0  0
  157.1203  149.6420  178.2350 C   0  0  0  0  0  0  0  0  0  0  0  0
  156.6836  149.4793  179.9161 Cl  0  0  0  0  0  0  0  0  0  0  0  0
  156.2436  149.4062  177.1990 C   0  0  0  0  0  0  0  0  0  0  0  0
  156.6140  149.5418  175.8898 C   0  0  0  0  0  0  0  0  0  0  0  0
  155.7596  149.3123  174.8672 F   0  0  0  0  0  0  0  0  0  0  0  0
  1  2  1  0
  2  3  2  0
  3  4  1  0
  4  5  1  0
  4  6  2  0
  6  7  1  0
  7  8  2  0
  8  9  1  0
  9 10  2  0
 10 11  1  0
 11 12  2  0
 12 13  1  0
 12 14  1  0
 14 15  2  0
 15 16  1  0
  8  2  1  0
 15  9  1  0
M  END
$$$$
