
     RDKit          3D

 19 19  0  0  0  0  0  0  0  0999 V2000
   43.7014   41.3882   26.0462 C   0  0  0  0  0  0  0  0  0  0  0  0
   43.0156   41.3837   27.1717 C   0  0  0  0  0  0  0  0  0  0  0  0
   41.6413   41.9446   27.2256 C   0  0  0  0  0  0  0  0  0  0  0  0
   40.6863   40.9413   27.0771 O   0  0  0  0  0  0  0  0  0  0  0  0
   43.6095   40.8204   28.3862 C   0  0  0  0  0  0  0  0  0  0  0  0
   43.2304   41.1852   29.5366 O   0  0  0  0  0  0  0  0  0  0  0  0
   44.6353   39.8419   28.3327 N   0  0  0  0  0  0  0  0  0  0  0  0
   45.2929   39.3470   29.4821 C   0  0  0  0  0  0  0  0  0  0  0  0
   45.0020   39.7929   30.7488 C   0  0  0  0  0  0  0  0  0  0  0  0
   45.6582   39.2964   31.8744 C   0  0  0  0  0  0  0  0  0  0  0  0
   45.2857   39.8641   33.4703 S   0  0  0  0  0  6  0  0  0  0  0  0
   46.5224   40.2066   34.2517 O   0  0  0  0  0  0  0  0  0  0  0  0
   44.4624   41.1342   33.3088 O   0  0  0  0  0  0  0  0  0  0  0  0
   44.2902   38.7517   34.3416 N   0  0  0  0  0  0  0  0  0  0  0  0
   42.9950   38.6359   33.6979 C   0  0  0  0  0  0  0  0  0  0  0  0
   46.6264   38.3322   31.7241 C   0  0  0  0  0  0  0  0  0  0  0  0
   46.9100   37.8932   30.4561 C   0  0  0  0  0  0  0  0  0  0  0  0
   46.2612   38.3835   29.3385 C   0  0  0  0  0  0  0  0  0  0  0  0
   46.6202   37.8730   28.0866 O   0  0  0  0  0  0  0  0  0  0  0  0
  1  2  2  0
  2  3  1  0
  3  4  1  0
  2  5  1  0
  5  6  2  0
  5  7  1  0
  7  8  1  0
  8  9  2  0
  9 10  1  0
 10 11  1  0
 11 12  2  0
 11 13  2  0
 11 14  1  0
 14 15  1  0
 10 16  2  0
 16 17  1  0
 17 18  2  0
 18 19  1  0
 18  8  1  0
M  END
$$$$
