
     RDKit          3D

 21 22  0  0  0  0  0  0  0  0999 V2000
   -1.9538   -6.7837  -61.9046 C   0  0  0  0  0  0  0  0  0  0  0  0
   -0.9345   -6.4627  -61.0747 C   0  0  0  0  0  0  0  0  0  0  0  0
   -0.1708   -7.5345  -60.5181 C   0  0  0  0  0  0  0  0  0  0  0  0
    0.0842   -7.9648  -59.3167 C   0  0  0  0  0  0  0  0  0  0  0  0
   -0.2879   -7.5599  -57.9828 C   0  0  0  0  0  0  0  0  0  0  0  0
   -0.3648   -6.3565  -57.4969 C   0  0  0  0  0  0  0  0  0  0  0  0
   -0.7400   -5.9473  -56.1281 C   0  0  0  0  0  0  0  0  0  0  0  0
    0.3518   -4.9868  -55.7053 C   0  0  0  0  0  0  0  0  0  0  0  0
    0.3619   -4.4686  -54.3833 N   0  0  0  0  0  0  0  0  0  0  0  0
    1.6210   -4.0618  -53.7918 C   0  0  0  0  0  0  0  0  0  0  0  0
    1.6283   -4.1768  -52.3049 C   0  0  0  0  0  0  0  0  0  0  0  0
    1.7619   -2.9605  -51.6656 O   0  0  0  0  0  0  0  0  0  0  0  0
    1.2950   -4.6280  -56.5600 N   0  0  0  0  0  0  0  0  0  0  0  0
    1.1183   -4.7251  -57.9453 C   0  0  0  0  0  0  0  0  0  0  0  0
   -0.0677   -5.2027  -58.2929 N   0  0  0  0  0  0  0  0  0  0  0  0
    1.9597   -4.4369  -59.0214 N   0  0  0  0  0  3  0  0  0  0  0  0
    1.6516   -4.7645  -60.2281 C   0  0  0  0  0  0  0  0  0  0  0  0
    0.5219   -4.3190  -60.7550 C   0  0  0  0  0  0  0  0  0  0  0  0
   -0.7305   -4.9978  -60.8848 C   0  0  0  0  0  0  0  0  0  0  0  0
   -1.8492   -4.2759  -60.8388 C   0  0  0  0  0  0  0  0  0  0  0  0
   -2.7445   -4.0089  -62.3110 Cl  0  0  0  0  0  0  0  0  0  0  0  0
  1  2  2  0
  2  3  1  0
  3  4  2  0
  4  5  1  0
  5  6  2  0
  6  7  1  0
  7  8  1  0
  8  9  1  0
  9 10  1  0
 10 11  1  0
 11 12  1  0
  8 13  2  0
 13 14  1  0
 14 15  2  0
 14 16  1  0
 16 17  2  0
 17 18  2  0
 18 19  1  0
 19 20  2  3
 20 21  1  0
 19  2  1  0
 15  6  1  0
M  CHG  1  16   1
M  RAD  1  16   2
M  END
$$$$
