
     RDKit          3D

 40 44  0  0  0  0  0  0  0  0999 V2000
   -1.4606   33.8204    6.8651 C   0  0  0  0  0  0  0  0  0  0  0  0
   -2.7353   33.2568    6.8332 O   0  0  0  0  0  0  0  0  0  0  0  0
   -3.1248   32.3736    7.8105 C   0  0  0  0  0  0  0  0  0  0  0  0
   -2.5578   32.4645    8.9431 O   0  0  0  0  0  0  0  0  0  0  0  0
   -4.1558   31.3546    7.5769 C   0  0  0  0  0  0  0  0  0  0  0  0
   -3.9109   30.0150    7.7785 C   0  0  0  0  0  0  0  0  0  0  0  0
   -4.9163   29.0691    7.5464 C   0  0  0  0  0  0  0  0  0  0  0  0
   -6.1707   29.4350    7.1139 C   0  0  0  0  0  0  0  0  0  0  0  0
   -7.2455   28.4232    6.8661 C   0  0  0  0  0  0  0  0  0  0  0  0
   -6.5959   27.2971    6.1657 C   0  0  0  0  0  0  0  0  0  0  0  0
   -6.5253   26.0881    6.7150 C   0  0  0  0  0  0  0  0  0  0  0  0
   -5.8637   24.9455    5.9991 C   0  0  0  0  0  0  0  0  0  0  0  0
   -5.8275   25.1948    4.5063 C   0  0  0  0  0  0  0  0  0  0  0  0
   -5.1396   24.0496    3.8499 C   0  0  0  0  0  0  0  0  0  0  0  0
   -7.2745   25.2547    4.0198 C   0  0  0  0  0  0  0  0  0  0  0  0
   -5.2109   26.5379    4.1943 C   0  0  0  0  0  0  0  0  0  0  0  0
   -6.0366   27.5696    4.8468 C   0  0  0  0  0  0  0  0  0  0  0  0
   -6.2460   28.6536    4.2699 O   0  0  0  0  0  0  0  0  0  0  0  0
   -7.0601   25.7940    7.9949 N   0  0  0  0  0  0  0  0  0  0  0  0
   -6.9661   24.4965    8.5465 C   0  0  0  0  0  0  0  0  0  0  0  0
   -5.7409   23.8864    8.7123 C   0  0  0  0  0  0  0  0  0  0  0  0
   -5.6961   22.5977    9.2640 C   0  0  0  0  0  0  0  0  0  0  0  0
   -6.8515   21.9453    9.6367 C   0  0  0  0  0  0  0  0  0  0  0  0
   -6.7845   20.6689   10.1814 O   0  0  0  0  0  0  0  0  0  0  0  0
   -5.6385   19.8745   10.0944 C   0  0  0  0  0  0  0  0  0  0  0  0
   -8.0532   22.5907    9.4539 C   0  0  0  0  0  0  0  0  0  0  0  0
   -8.1131   23.8504    8.9158 C   0  0  0  0  0  0  0  0  0  0  0  0
   -9.3135   24.4879    8.7362 O   0  0  0  0  0  0  0  0  0  0  0  0
  -10.4634   23.9649    9.3710 C   0  0  0  0  0  0  0  0  0  0  0  0
   -7.6954   26.8527    8.7044 C   0  0  0  0  0  0  0  0  0  0  0  0
   -7.7819   28.0613    8.1882 C   0  0  0  0  0  0  0  0  0  0  0  0
   -8.4448   29.1453    8.9398 C   0  0  0  0  0  0  0  0  0  0  0  0
   -8.6648   30.2385    8.3647 O   0  0  0  0  0  0  0  0  0  0  0  0
   -8.8545   28.9548   10.3711 C   0  0  0  0  0  0  0  0  0  0  0  0
   -9.3166   27.5141   10.4639 C   0  0  0  0  0  0  0  0  0  0  0  0
   -9.7562   27.2617   11.8665 C   0  0  0  0  0  0  0  0  0  0  0  0
  -10.5176   27.3521    9.5457 C   0  0  0  0  0  0  0  0  0  0  0  0
   -8.2582   26.5456   10.0517 C   0  0  0  0  0  0  0  0  0  0  0  0
   -6.4075   30.7780    6.9146 C   0  0  0  0  0  0  0  0  0  0  0  0
   -5.4096   31.7209    7.1446 C   0  0  0  0  0  0  0  0  0  0  0  0
  1  2  1  0
  2  3  1  0
  3  4  2  0
  3  5  1  0
  5  6  2  0
  6  7  1  0
  7  8  2  0
  8  9  1  0
  9 10  1  0
 10 11  2  0
 11 12  1  0
 12 13  1  0
 13 14  1  0
 13 15  1  0
 13 16  1  0
 16 17  1  0
 17 18  2  0
 11 19  1  0
 19 20  1  0
 20 21  2  0
 21 22  1  0
 22 23  2  0
 23 24  1  0
 24 25  1  0
 23 26  1  0
 26 27  2  0
 27 28  1  0
 28 29  1  0
 19 30  1  0
 30 31  2  0
 31 32  1  0
 32 33  2  0
 32 34  1  0
 34 35  1  0
 35 36  1  0
 35 37  1  0
 35 38  1  0
  8 39  1  0
 39 40  2  0
 40  5  1  0
 31  9  1  0
 17 10  1  0
 27 20  1  0
 38 30  1  0
M  END
$$$$
