
     RDKit          3D

 21 23  0  0  0  0  0  0  0  0999 V2000
  127.3090  140.3021  146.9966 C   0  0  0  0  0  0  0  0  0  0  0  0
  127.7083  140.8344  148.2868 N   0  0  0  0  0  0  0  0  0  0  0  0
  127.7338  142.2361  148.4963 C   0  0  0  0  0  0  0  0  0  0  0  0
  127.3726  143.0752  147.5991 N   0  0  0  0  0  0  0  0  0  0  0  0
  127.3900  144.4989  147.7892 C   0  0  0  0  0  0  0  0  0  0  0  0
  126.9798  145.3921  146.7642 N   0  0  0  0  0  0  0  0  0  0  0  0
  126.8881  145.0109  145.3954 C   0  0  0  0  0  0  0  0  0  0  0  0
  126.8644  143.7293  145.1178 C   0  0  0  0  0  0  0  0  0  0  0  0
  126.7725  143.2717  143.7512 C   0  0  0  0  0  0  0  0  0  0  0  0
  126.7109  144.1067  142.7615 C   0  0  0  0  0  0  0  0  0  0  0  0
  126.5994  143.5625  141.1019 Cl  0  0  0  0  0  0  0  0  0  0  0  0
  126.7335  145.5652  143.0116 C   0  0  0  0  0  0  0  0  0  0  0  0
  125.1544  146.1976  142.4245 Cl  0  0  0  0  0  0  0  0  0  0  0  0
  126.8239  145.9142  144.3626 O   0  0  0  0  0  0  0  0  0  0  0  0
  127.7772  145.0565  148.8974 N   0  0  0  0  0  0  0  0  0  0  0  0
  128.2073  144.2505  149.9855 C   0  0  0  0  0  0  0  0  0  0  0  0
  128.6124  144.7386  151.1356 C   0  0  0  0  0  0  0  0  0  0  0  0
  129.0600  143.9124  152.2690 C   0  0  0  0  0  0  0  0  0  0  0  0
  129.0151  142.4744  152.0010 C   0  0  0  0  0  0  0  0  0  0  0  0
  128.6151  141.9637  150.8624 C   0  0  0  0  0  0  0  0  0  0  0  0
  128.1800  142.7956  149.7648 C   0  0  0  0  0  3  0  0  0  0  0  0
  1  2  1  0
  2  3  1  0
  3  4  2  0
  4  5  1  0
  5  6  1  0
  6  7  1  0
  7  8  2  0
  8  9  1  0
  9 10  2  0
 10 11  1  0
 10 12  1  0
 12 13  1  0
 12 14  1  0
  5 15  2  0
 15 16  1  0
 16 17  2  0
 17 18  1  0
 18 19  1  0
 19 20  2  0
 20 21  1  0
 21  3  1  0
 14  7  1  0
 21 16  1  0
M  CHG  1  21   1
M  END
$$$$
