
     RDKit          3D

 22 22  0  0  0  0  0  0  0  0999 V2000
    0.9701   -9.6039  -65.7675 C   0  0  0  0  0  0  0  0  0  0  0  0
    0.9297   -8.9185  -64.6411 C   0  0  0  0  0  0  0  0  0  0  0  0
    0.7947   -8.2337  -63.5261 C   0  0  0  0  0  0  0  0  0  0  0  0
   -0.3734   -8.5060  -62.7509 C   0  0  0  0  0  0  0  0  0  0  0  0
   -0.6329   -7.8155  -61.6504 C   0  0  0  0  0  0  0  0  0  0  0  0
   -1.9308   -8.1700  -61.0007 C   0  0  0  0  0  0  0  0  0  0  0  0
   -1.8546   -8.1563  -59.5046 C   0  0  0  0  0  0  0  0  0  0  0  0
   -2.1465   -6.8973  -58.9044 N   0  0  0  0  0  0  0  0  0  0  0  0
   -3.2300   -6.9200  -57.9707 C   0  0  0  0  0  0  0  0  0  0  0  0
   -3.6674   -5.5796  -57.4943 C   0  0  0  0  0  0  0  0  0  0  0  0
   -3.4291   -5.4250  -56.1284 O   0  0  0  0  0  0  0  0  0  0  0  0
   -1.0013   -6.2694  -58.3848 N   0  0  0  0  0  0  0  0  0  0  0  0
    0.2244   -5.9012  -59.0039 C   0  0  0  0  0  0  0  0  0  0  0  0
    1.0113   -5.0910  -58.1403 N   0  0  0  0  0  0  0  0  0  0  0  0
    0.4783   -3.8263  -57.6524 C   0  0  0  0  0  0  0  0  0  0  0  0
   -0.8700   -3.5484  -58.1585 C   0  0  0  0  0  0  0  0  0  0  0  0
   -1.0988   -2.3734  -58.7322 C   0  0  0  0  0  0  0  0  0  0  0  0
   -2.4575   -2.0406  -59.2501 C   0  0  0  0  0  0  0  0  0  0  0  0
   -3.4096   -1.9446  -58.0704 C   0  0  0  0  0  0  0  0  0  0  0  0
   -2.4349   -0.5266  -60.1813 Cl  0  0  0  0  0  0  0  0  0  0  0  0
    0.7674   -6.1384  -60.1579 N   0  0  0  0  0  0  0  0  0  0  0  0
    0.3603   -6.8661  -61.2832 N   0  0  0  0  0  0  0  0  0  0  0  0
  1  2  2  0
  2  3  2  0
  3  4  1  0
  4  5  2  3
  5  6  1  0
  6  7  1  0
  7  8  1  0
  8  9  1  0
  9 10  1  0
 10 11  1  0
  8 12  1  0
 12 13  1  0
 13 14  1  0
 14 15  1  0
 15 16  1  0
 16 17  2  3
 17 18  1  0
 18 19  1  0
 18 20  1  0
 13 21  2  0
 21 22  1  0
 22  5  1  0
M  END
$$$$
