
     RDKit          3D

 22 22  0  0  0  0  0  0  0  0999 V2000
    1.1253  -10.2430  -65.4284 C   0  0  0  0  0  0  0  0  0  0  0  0
    0.3351   -9.6870  -64.5303 C   0  0  0  0  0  0  0  0  0  0  0  0
   -0.3964   -9.1690  -63.5675 C   0  0  0  0  0  0  0  0  0  0  0  0
   -0.7492   -7.7923  -63.7084 C   0  0  0  0  0  0  0  0  0  0  0  0
   -0.8866   -7.0153  -62.6441 C   0  0  0  0  0  0  0  0  0  0  0  0
   -2.1204   -7.2872  -61.8466 C   0  0  0  0  0  0  0  0  0  0  0  0
   -1.8971   -7.1640  -60.3704 C   0  0  0  0  0  0  0  0  0  0  0  0
   -2.1057   -5.8566  -59.8430 N   0  0  0  0  0  0  0  0  0  0  0  0
   -3.0924   -5.7822  -58.8099 C   0  0  0  0  0  0  0  0  0  0  0  0
   -4.0268   -4.6296  -58.9257 C   0  0  0  0  0  0  0  0  0  0  0  0
   -3.6312   -3.5726  -58.1055 O   0  0  0  0  0  0  0  0  0  0  0  0
   -0.9039   -5.2211  -59.4864 N   0  0  0  0  0  0  0  0  0  0  0  0
    0.2614   -4.9314  -60.2477 C   0  0  0  0  0  0  0  0  0  0  0  0
    1.1439   -4.0794  -59.5290 N   0  0  0  0  0  0  0  0  0  0  0  0
    0.7623   -3.5911  -58.2108 C   0  0  0  0  0  0  0  0  0  0  0  0
    1.0113   -4.5733  -57.1505 C   0  0  0  0  0  0  0  0  0  0  0  0
   -0.0178   -5.2655  -56.6771 C   0  0  0  0  0  0  0  0  0  0  0  0
    0.1749   -6.2262  -55.5523 C   0  0  0  0  0  0  0  0  0  0  0  0
    0.7190   -5.4621  -54.3576 C   0  0  0  0  0  0  0  0  0  0  0  0
   -1.3466   -7.0515  -55.1474 Cl  0  0  0  0  0  0  0  0  0  0  0  0
    0.6838   -5.2677  -61.4273 N   0  0  0  0  0  0  0  0  0  0  0  0
    0.1548   -6.0667  -62.4487 N   0  0  0  0  0  0  0  0  0  0  0  0
  1  2  2  0
  2  3  2  0
  3  4  1  0
  4  5  2  3
  5  6  1  0
  6  7  1  0
  7  8  1  0
  8  9  1  0
  9 10  1  0
 10 11  1  0
  8 12  1  0
 12 13  1  0
 13 14  1  0
 14 15  1  0
 15 16  1  0
 16 17  2  3
 17 18  1  0
 18 19  1  0
 18 20  1  0
 13 21  2  0
 21 22  1  0
 22  5  1  0
M  END
$$$$
