
     RDKit          3D

 23 25  0  0  0  0  0  0  0  0999 V2000
  118.6706  147.2347  137.0722 C   0  0  0  0  0  0  0  0  0  0  0  0
  117.2954  146.9952  136.8177 O   0  0  0  0  0  0  0  0  0  0  0  0
  116.3364  147.1050  137.8267 C   0  0  0  0  0  0  0  0  0  0  0  0
  116.7106  147.3872  139.1478 C   0  0  0  0  0  0  0  0  0  0  0  0
  115.8259  147.5069  140.1760 C   0  0  0  0  0  0  0  0  0  0  0  0
  116.1710  147.7981  141.5580 C   0  0  0  0  0  0  0  0  0  0  0  0
  117.4443  147.5614  141.9249 O   0  0  0  0  0  0  0  0  0  0  0  0
  117.9053  147.7675  143.1109 C   0  0  0  0  0  0  0  0  0  0  0  0
  119.2372  147.4933  143.3985 C   0  0  0  0  0  0  0  0  0  0  0  0
  119.7347  147.7119  144.6646 C   0  0  0  0  0  0  0  0  0  0  0  0
  121.1516  147.4292  145.0031 C   0  0  0  0  0  0  0  0  0  0  0  0
  118.8650  148.2061  145.6143 C   0  0  0  0  0  0  0  0  0  0  0  0
  119.3815  148.4460  146.9755 C   0  0  0  0  0  0  0  0  0  0  0  0
  117.5317  148.4811  145.3279 C   0  0  0  0  0  0  0  0  0  0  0  0
  117.0413  148.2598  144.0589 C   0  0  0  0  0  0  0  0  0  0  0  0
  115.7296  148.5277  143.7680 C   0  0  0  0  0  0  0  0  0  0  0  0
  114.9088  148.9762  144.5994 O   0  0  0  0  0  0  0  0  0  0  0  0
  115.2813  148.2832  142.4554 C   0  0  0  0  0  0  0  0  0  0  0  0
  113.9602  148.5500  142.1512 O   0  0  0  0  0  0  0  0  0  0  0  0
  114.4805  147.3266  139.8271 C   0  0  0  0  0  0  0  0  0  0  0  0
  114.0772  147.0479  138.5375 C   0  0  0  0  0  0  0  0  0  0  0  0
  115.0071  146.9362  137.5315 C   0  0  0  0  0  0  0  0  0  0  0  0
  114.6403  146.6542  136.2077 O   0  0  0  0  0  0  0  0  0  0  0  0
  1  2  1  0
  2  3  1  0
  3  4  2  0
  4  5  1  0
  5  6  1  0
  6  7  1  0
  7  8  1  0
  8  9  2  0
  9 10  1  0
 10 11  1  0
 10 12  2  0
 12 13  1  0
 12 14  1  0
 14 15  2  0
 15 16  1  0
 16 17  2  0
 16 18  1  0
 18 19  1  0
  5 20  2  0
 20 21  1  0
 21 22  2  0
 22 23  1  0
 22  3  1  0
 18  6  2  0
 15  8  1  0
M  END
$$$$
