
     RDKit          3D

 23 25  0  0  0  0  0  0  0  0999 V2000
  112.6618  130.6337  120.8298 C   0  0  0  0  0  0  0  0  0  0  0  0
  113.5159  129.7567  121.5472 O   0  0  0  0  0  0  0  0  0  0  0  0
  114.4513  130.2378  122.4655 C   0  0  0  0  0  0  0  0  0  0  0  0
  114.6875  131.6131  122.5988 C   0  0  0  0  0  0  0  0  0  0  0  0
  115.5846  132.1457  123.4739 C   0  0  0  0  0  0  0  0  0  0  0  0
  115.8599  133.5632  123.6437 C   0  0  0  0  0  0  0  0  0  0  0  0
  116.7233  133.8975  124.6207 O   0  0  0  0  0  0  0  0  0  0  0  0
  117.0698  135.1081  124.8965 C   0  0  0  0  0  0  0  0  0  0  0  0
  117.9700  135.3582  125.9257 C   0  0  0  0  0  0  0  0  0  0  0  0
  118.3434  136.6503  126.2243 C   0  0  0  0  0  0  0  0  0  0  0  0
  119.3020  136.9502  127.3167 C   0  0  0  0  0  0  0  0  0  0  0  0
  117.7923  137.6638  125.4681 C   0  0  0  0  0  0  0  0  0  0  0  0
  118.1816  139.0536  125.7747 C   0  0  0  0  0  0  0  0  0  0  0  0
  116.8913  137.4149  124.4378 C   0  0  0  0  0  0  0  0  0  0  0  0
  116.5225  136.1195  124.1450 C   0  0  0  0  0  0  0  0  0  0  0  0
  115.6357  135.8651  123.1320 C   0  0  0  0  0  0  0  0  0  0  0  0
  115.1135  136.7545  122.4231 O   0  0  0  0  0  0  0  0  0  0  0  0
  115.2936  134.5232  122.8756 C   0  0  0  0  0  0  0  0  0  0  0  0
  114.4002  134.2554  121.8562 O   0  0  0  0  0  0  0  0  0  0  0  0
  116.2783  131.2124  124.2564 C   0  0  0  0  0  0  0  0  0  0  0  0
  116.0707  129.8526  124.1512 C   0  0  0  0  0  0  0  0  0  0  0  0
  115.1540  129.3609  123.2528 C   0  0  0  0  0  0  0  0  0  0  0  0
  114.9123  127.9866  123.1139 O   0  0  0  0  0  0  0  0  0  0  0  0
  1  2  1  0
  2  3  1  0
  3  4  2  0
  4  5  1  0
  5  6  1  0
  6  7  1  0
  7  8  1  0
  8  9  2  0
  9 10  1  0
 10 11  1  0
 10 12  2  0
 12 13  1  0
 12 14  1  0
 14 15  2  0
 15 16  1  0
 16 17  2  0
 16 18  1  0
 18 19  1  0
  5 20  2  0
 20 21  1  0
 21 22  2  0
 22 23  1  0
 22  3  1  0
 18  6  2  0
 15  8  1  0
M  END
$$$$
