
     RDKit          3D

 23 25  0  0  0  0  0  0  0  0999 V2000
  109.2950  133.4149  146.4344 C   0  0  0  0  0  0  0  0  0  0  0  0
  108.9264  134.4885  145.5997 O   0  0  0  0  0  0  0  0  0  0  0  0
  108.7981  134.2227  144.2398 C   0  0  0  0  0  0  0  0  0  0  0  0
  109.7948  134.4900  143.3234 C   0  0  0  0  0  0  0  0  0  0  0  0
  110.9701  135.0522  143.8211 O   0  0  0  0  0  0  0  0  0  0  0  0
  109.6839  134.2328  141.9729 C   0  0  0  0  0  0  0  0  0  0  0  0
  108.4964  133.6696  141.5006 C   0  0  0  0  0  0  0  0  0  0  0  0
  107.4957  133.4021  142.4266 C   0  0  0  0  0  0  0  0  0  0  0  0
  107.6264  133.6667  143.7720 C   0  0  0  0  0  0  0  0  0  0  0  0
  106.5824  133.3728  144.6429 O   0  0  0  0  0  0  0  0  0  0  0  0
  106.2888  132.8156  141.8565 C   0  0  0  0  0  0  0  0  0  0  0  0
  105.4522  132.2785  142.6509 O   0  0  0  0  0  0  0  0  0  0  0  0
  105.9271  132.7790  140.4152 C   0  0  0  0  0  0  0  0  0  0  0  0
  104.6037  133.5192  140.2704 C   0  0  2  0  0  0  0  0  0  0  0  0
  103.6258  132.7098  140.8382 O   0  0  0  0  0  0  0  0  0  0  0  0
  104.3157  133.8635  138.8696 C   0  0  0  0  0  0  0  0  0  0  0  0
  104.7624  133.2265  137.7327 C   0  0  0  0  0  0  0  0  0  0  0  0
  104.4238  133.6433  136.4665 C   0  0  0  0  0  0  0  0  0  0  0  0
  103.5930  134.7577  136.3152 C   0  0  0  0  0  0  0  0  0  0  0  0
  103.1177  135.4322  137.4182 C   0  0  0  0  0  0  0  0  0  0  0  0
  103.4874  134.9730  138.6656 C   0  0  0  0  0  0  0  0  0  0  0  0
  106.9800  133.4882  139.5866 C   0  0  0  0  0  0  0  0  0  0  0  0
  108.2573  133.3651  140.1854 O   0  0  0  0  0  0  0  0  0  0  0  0
  1  2  1  0
  2  3  1  0
  3  4  2  0
  4  5  1  0
  4  6  1  0
  6  7  2  0
  7  8  1  0
  8  9  2  0
  9 10  1  0
  8 11  1  0
 11 12  2  0
 11 13  1  0
 13 14  1  0
 14 15  1  6
 14 16  1  0
 16 17  2  0
 17 18  1  0
 18 19  2  0
 19 20  1  0
 20 21  2  0
 13 22  1  0
 22 23  1  0
  9  3  1  0
 21 16  1  0
 23  7  1  0
M  END
$$$$
