
     RDKit          3D

 23 25  0  0  0  0  0  0  0  0999 V2000
  150.2534  146.9625  138.9436 C   0  0  0  0  0  0  0  0  0  0  0  0
  149.0825  146.6326  138.2328 O   0  0  0  0  0  0  0  0  0  0  0  0
  149.2340  146.2222  136.9117 C   0  0  0  0  0  0  0  0  0  0  0  0
  148.9701  147.0427  135.8338 C   0  0  0  0  0  0  0  0  0  0  0  0
  148.5336  148.3356  136.1218 O   0  0  0  0  0  0  0  0  0  0  0  0
  149.1149  146.6519  134.5191 C   0  0  0  0  0  0  0  0  0  0  0  0
  149.5535  145.3519  134.2584 C   0  0  0  0  0  0  0  0  0  0  0  0
  149.8179  144.5293  135.3465 C   0  0  0  0  0  0  0  0  0  0  0  0
  149.6669  144.9391  136.6527 C   0  0  0  0  0  0  0  0  0  0  0  0
  149.9503  144.0614  137.6939 O   0  0  0  0  0  0  0  0  0  0  0  0
  150.2709  143.1895  134.9924 C   0  0  0  0  0  0  0  0  0  0  0  0
  150.8053  142.4789  135.9029 O   0  0  0  0  0  0  0  0  0  0  0  0
  150.1713  142.5549  133.6519 C   0  0  0  0  0  0  0  0  0  0  0  0
  149.3288  141.2967  133.8176 C   0  0  2  0  0  0  0  0  0  0  0  0
  150.1731  140.3096  134.3141 O   0  0  0  0  0  0  0  0  0  0  0  0
  148.6710  140.9051  132.5615 C   0  0  0  0  0  0  0  0  0  0  0  0
  149.1450  140.0533  131.5880 C   0  0  0  0  0  0  0  0  0  0  0  0
  148.4344  139.7608  130.4473 C   0  0  0  0  0  0  0  0  0  0  0  0
  147.1789  140.3462  130.2576 C   0  0  0  0  0  0  0  0  0  0  0  0
  146.6570  141.2055  131.1992 C   0  0  0  0  0  0  0  0  0  0  0  0
  147.4105  141.4653  132.3253 C   0  0  0  0  0  0  0  0  0  0  0  0
  149.4787  143.4850  132.6756 C   0  0  0  0  0  0  0  0  0  0  0  0
  149.7388  144.8385  133.0006 O   0  0  0  0  0  0  0  0  0  0  0  0
  1  2  1  0
  2  3  1  0
  3  4  2  0
  4  5  1  0
  4  6  1  0
  6  7  2  0
  7  8  1  0
  8  9  2  0
  9 10  1  0
  8 11  1  0
 11 12  2  0
 11 13  1  0
 13 14  1  0
 14 15  1  6
 14 16  1  0
 16 17  2  0
 17 18  1  0
 18 19  2  0
 19 20  1  0
 20 21  2  0
 13 22  1  0
 22 23  1  0
  9  3  1  0
 21 16  1  0
 23  7  1  0
M  END
$$$$
