
     RDKit          3D

 27 29  0  0  0  0  0  0  0  0999 V2000
  168.9382  136.4410  165.5349 C   0  0  0  0  0  0  0  0  0  0  0  0
  170.0549  136.8642  164.6039 C   0  0  0  0  0  0  0  0  0  0  0  0
  169.8381  138.2708  164.0574 C   0  0  0  0  0  0  0  0  0  0  0  0
  171.0926  139.0847  164.2539 C   0  0  0  0  0  0  0  0  0  0  0  0
  171.5360  139.8746  163.0992 C   0  0  0  0  0  0  0  0  0  0  0  0
  170.6294  140.2024  162.0662 N   0  0  0  0  0  0  0  0  0  0  0  0
  169.2744  139.8485  161.9128 C   0  0  0  0  0  0  0  0  0  0  0  0
  168.5754  140.1637  160.8200 C   0  0  0  0  0  0  0  0  0  0  0  0
  168.9848  139.6786  159.7525 N   0  0  0  0  0  0  0  0  0  0  0  0
  168.4593  138.8727  158.7708 C   0  0  0  0  0  0  0  0  0  0  0  0
  168.3874  139.3535  157.5206 C   0  0  0  0  0  0  0  0  0  0  0  0
  168.8382  140.6862  157.1441 C   0  0  0  0  0  0  0  0  0  0  0  0
  168.3373  141.2183  156.0440 C   0  0  0  0  0  0  0  0  0  0  0  0
  167.1581  140.3474  155.0530 Cl  0  0  0  0  0  0  0  0  0  0  0  0
  168.7173  142.5302  155.5799 N   0  0  0  0  0  0  0  0  0  0  0  0
  168.1471  143.0581  154.3819 C   0  0  0  0  0  0  0  0  0  0  0  0
  168.6597  144.4052  154.0777 C   0  0  0  0  0  0  0  0  0  0  0  0
  169.5430  145.0599  154.8145 C   0  0  0  0  0  0  0  0  0  0  0  0
  170.0720  144.4341  156.0261 C   0  0  0  0  0  0  0  0  0  0  0  0
  169.6682  143.2246  156.3785 C   0  0  0  0  0  0  0  0  0  0  0  0
  170.1800  142.5709  157.5843 C   0  0  0  0  0  0  0  0  0  0  0  0
  169.7826  141.4066  157.9131 N   0  0  0  0  0  0  0  0  0  0  0  0
  171.1313  143.2838  158.3625 N   0  0  0  0  0  0  0  0  0  0  0  0
  172.2382  142.6350  159.0766 C   0  0  0  0  0  0  0  0  0  0  0  0
  172.2331  142.9459  160.5413 C   0  0  0  0  0  0  0  0  0  0  0  0
  172.2505  141.7814  161.3426 O   0  0  0  0  0  0  0  0  0  0  0  0
  171.1924  141.0031  160.9591 C   0  0  0  0  0  0  0  0  0  0  0  0
  1  2  1  0
  2  3  1  0
  3  4  1  0
  4  5  1  0
  5  6  1  0
  6  7  1  0
  7  8  2  0
  8  9  2  0
  9 10  1  0
 10 11  2  0
 11 12  1  0
 12 13  2  0
 13 14  1  0
 13 15  1  0
 15 16  1  0
 16 17  1  0
 17 18  2  0
 18 19  1  0
 19 20  2  0
 20 21  1  0
 21 22  2  0
 21 23  1  0
 23 24  1  0
 24 25  1  0
 25 26  1  0
 26 27  1  0
 27  6  1  0
 22 12  1  0
 20 15  1  0
M  END
$$$$
