
     RDKit          3D

 27 29  0  0  0  0  0  0  0  0999 V2000
  153.9061  164.5912  160.4782 C   0  0  0  0  0  0  0  0  0  0  0  0
  152.6974  163.9564  161.1333 C   0  0  0  0  0  0  0  0  0  0  0  0
  152.9451  162.4951  161.4901 C   0  0  0  0  0  0  0  0  0  0  0  0
  151.6848  161.8979  162.0643 C   0  0  0  0  0  0  0  0  0  0  0  0
  151.3821  160.5200  161.6598 C   0  0  0  0  0  0  0  0  0  0  0  0
  151.7118  160.0663  160.3629 N   0  0  0  0  0  0  0  0  0  0  0  0
  152.3718  160.7388  159.3155 C   0  0  0  0  0  0  0  0  0  0  0  0
  152.5244  160.1960  158.1054 C   0  0  0  0  0  0  0  0  0  0  0  0
  151.4781  159.9364  157.4888 N   0  0  0  0  0  0  0  0  0  0  0  0
  150.9325  160.2946  156.2791 C   0  0  0  0  0  0  0  0  0  0  0  0
  150.6755  159.3294  155.3838 C   0  0  0  0  0  0  0  0  0  0  0  0
  150.9418  157.9178  155.6237 C   0  0  0  0  0  0  0  0  0  0  0  0
  151.0772  157.1290  154.5732 C   0  0  0  0  0  0  0  0  0  0  0  0
  150.9393  157.7574  152.9247 Cl  0  0  0  0  0  0  0  0  0  0  0  0
  151.3400  155.7163  154.6986 N   0  0  0  0  0  0  0  0  0  0  0  0
  151.4754  154.9072  153.5297 C   0  0  0  0  0  0  0  0  0  0  0  0
  151.7409  153.4978  153.8658 C   0  0  0  0  0  0  0  0  0  0  0  0
  151.8429  153.0226  155.0968 C   0  0  0  0  0  0  0  0  0  0  0  0
  151.6870  153.9313  156.2324 C   0  0  0  0  0  0  0  0  0  0  0  0
  151.4466  155.2156  156.0261 C   0  0  0  0  0  0  0  0  0  0  0  0
  151.2842  156.1499  157.1414 C   0  0  0  0  0  0  0  0  0  0  0  0
  151.0537  157.3843  156.9294 N   0  0  0  0  0  0  0  0  0  0  0  0
  151.3914  155.6245  158.4572 N   0  0  0  0  0  0  0  0  0  0  0  0
  150.5965  156.1164  159.5895 C   0  0  0  0  0  0  0  0  0  0  0  0
  151.4506  156.5706  160.7323 C   0  0  0  0  0  0  0  0  0  0  0  0
  151.1535  157.8914  161.1395 O   0  0  0  0  0  0  0  0  0  0  0  0
  151.2649  158.6957  160.0382 C   0  0  0  0  0  0  0  0  0  0  0  0
  1  2  1  0
  2  3  1  0
  3  4  1  0
  4  5  1  0
  5  6  1  0
  6  7  1  0
  7  8  2  0
  8  9  2  0
  9 10  1  0
 10 11  2  0
 11 12  1  0
 12 13  2  0
 13 14  1  0
 13 15  1  0
 15 16  1  0
 16 17  1  0
 17 18  2  0
 18 19  1  0
 19 20  2  0
 20 21  1  0
 21 22  2  0
 21 23  1  0
 23 24  1  0
 24 25  1  0
 25 26  1  0
 26 27  1  0
 27  6  1  0
 22 12  1  0
 20 15  1  0
M  END
$$$$
