
     RDKit          3D

 21 22  0  0  0  0  0  0  0  0999 V2000
    4.3019   30.6670   -5.4027 C   0  0  0  0  0  0  0  0  0  0  0  0
    3.0608   30.6046   -6.2021 C   0  0  0  0  0  0  0  0  0  0  0  0
    2.5045   31.8076   -6.6051 C   0  0  0  0  0  0  0  0  0  0  0  0
    1.3589   31.8437   -7.3437 C   0  0  0  0  0  0  0  0  0  0  0  0
    0.7610   30.6694   -7.6846 C   0  0  0  0  0  0  0  0  0  0  0  0
    1.3115   29.4441   -7.2845 C   0  0  0  0  0  0  0  0  0  0  0  0
    2.4583   29.4102   -6.5454 C   0  0  0  0  0  0  0  0  0  0  0  0
    3.2280   28.2949   -6.0099 C   0  0  0  0  0  0  0  0  0  0  0  0
    2.9092   27.9928   -4.6244 N   0  0  0  0  0  0  0  0  0  0  0  0
    3.9487   27.8828   -3.6834 C   0  0  0  0  0  0  0  0  0  0  0  0
    4.3517   28.9568   -3.0219 C   0  0  0  0  0  0  0  0  0  0  0  0
    5.7328   29.1685   -2.6545 C   0  0  0  0  0  0  0  0  0  0  0  0
    6.0951   30.1362   -1.8658 C   0  0  0  0  0  0  0  0  0  0  0  0
    7.5036   30.2548   -1.5798 N   0  0  0  0  0  0  0  0  0  0  0  0
    5.2077   31.1250   -1.2336 C   0  0  0  0  0  0  0  0  0  0  0  0
    4.9974   30.7569    0.5136 Cl  0  0  0  0  0  0  0  0  0  0  0  0
    3.1327   27.0532   -6.7386 N   0  0  0  0  0  0  0  0  0  0  0  0
    2.1770   26.5206   -7.4096 C   0  0  0  0  0  0  0  0  0  0  0  0
    0.8919   27.0503   -7.6184 N   0  0  0  0  0  0  0  0  0  0  0  0
    0.4467   28.3843   -7.7989 C   0  0  0  0  0  0  0  0  0  0  0  0
    0.1950   28.6861   -9.1580 O   0  0  0  0  0  0  0  0  0  0  0  0
  1  2  1  0
  2  3  2  0
  3  4  1  0
  4  5  2  0
  5  6  1  0
  6  7  2  0
  7  8  1  0
  8  9  1  0
  9 10  1  0
 10 11  2  3
 11 12  1  0
 12 13  2  3
 13 14  1  0
 13 15  1  0
 15 16  1  0
  8 17  1  0
 17 18  2  0
 18 19  1  0
 19 20  1  0
 20 21  1  0
  7  2  1  0
 20  6  1  0
M  END
$$$$
