
     RDKit          3D

 27 29  0  0  0  0  0  0  0  0999 V2000
  166.2104  139.4153  152.2458 C   0  0  0  0  0  0  0  0  0  0  0  0
  167.0258  138.9324  153.2971 O   0  0  0  0  0  0  0  0  0  0  0  0
  167.2502  139.7726  154.3941 C   0  0  0  0  0  0  0  0  0  0  0  0
  166.2050  140.3955  155.0463 C   0  0  0  0  0  0  0  0  0  0  0  0
  166.4109  141.2260  156.1285 C   0  0  0  0  0  0  0  0  0  0  0  0
  165.3655  141.8568  156.7907 O   0  0  0  0  0  0  0  0  0  0  0  0
  167.6972  141.4645  156.6025 C   0  0  0  0  0  0  0  0  0  0  0  0
  167.9056  142.2935  157.6842 C   0  0  0  0  0  0  0  0  0  0  0  0
  166.9731  142.8649  158.2862 O   0  0  0  0  0  0  0  0  0  0  0  0
  169.2230  142.4903  158.1102 C   0  0  0  0  0  0  0  0  0  0  0  0
  170.2306  141.8548  157.4366 C   0  0  0  0  0  0  0  0  0  0  0  0
  171.6190  142.0275  157.8410 C   0  0  0  0  0  0  0  0  0  0  0  0
  172.2337  143.2442  157.9081 C   0  0  0  0  0  0  0  0  0  0  0  0
  173.5659  143.3516  158.3054 C   0  0  0  0  0  0  0  0  0  0  0  0
  174.2064  144.5928  158.3779 O   0  0  0  0  0  0  0  0  0  0  0  0
  173.8300  145.6761  157.5691 C   0  0  0  0  0  0  0  0  0  0  0  0
  174.2803  142.2250  158.6363 C   0  0  0  0  0  0  0  0  0  0  0  0
  175.6043  142.3322  159.0314 O   0  0  0  0  0  0  0  0  0  0  0  0
  173.6822  140.9763  158.5771 C   0  0  0  0  0  0  0  0  0  0  0  0
  174.4317  139.8443  158.9201 O   0  0  0  0  0  0  0  0  0  0  0  0
  175.7682  139.7013  158.5322 C   0  0  0  0  0  0  0  0  0  0  0  0
  172.3672  140.8906  158.1826 C   0  0  0  0  0  0  0  0  0  0  0  0
  171.7980  139.6067  158.1339 O   0  0  0  0  0  0  0  0  0  0  0  0
  171.4853  138.9007  159.3214 C   0  0  0  0  0  0  0  0  0  0  0  0
  169.9545  141.0693  156.4009 O   0  0  0  0  0  0  0  0  0  0  0  0
  168.7426  140.8454  155.9550 C   0  0  0  0  0  0  0  0  0  0  0  0
  168.5267  140.0045  154.8584 C   0  0  0  0  0  0  0  0  0  0  0  0
  1  2  1  0
  2  3  1  0
  3  4  2  0
  4  5  1  0
  5  6  1  0
  5  7  2  0
  7  8  1  0
  8  9  2  0
  8 10  1  0
 10 11  2  0
 11 12  1  0
 12 13  2  0
 13 14  1  0
 14 15  1  0
 15 16  1  0
 14 17  2  0
 17 18  1  0
 17 19  1  0
 19 20  1  0
 20 21  1  0
 19 22  2  0
 22 23  1  0
 23 24  1  0
 11 25  1  0
 25 26  1  0
 26 27  2  0
 27  3  1  0
 26  7  1  0
 22 12  1  0
M  END
$$$$
