
     RDKit          3D

 22 23  0  0  0  0  0  0  0  0999 V2000
  127.1173  145.1154  147.6404 Cl  0  0  0  0  0  0  0  0  0  0  0  0
  127.6504  144.4994  149.2332 C   0  0  0  0  0  0  0  0  0  0  0  0
  128.5960  143.5862  149.2042 C   0  0  0  0  0  0  0  0  0  0  0  0
  129.2235  142.9028  150.3531 C   0  0  0  0  0  0  0  0  0  0  0  0
  129.9020  141.3186  149.8069 Cl  0  0  0  0  0  0  0  0  0  0  0  0
  128.2802  142.5568  151.4037 N   0  0  0  0  0  0  0  0  0  0  0  0
  128.7625  142.8839  152.7054 C   0  0  0  0  0  0  0  0  0  0  0  0
  128.9480  141.7706  153.5558 N   0  0  0  0  0  0  0  0  0  0  0  0
  129.7302  141.8193  154.5660 C   0  0  0  0  0  0  0  0  0  0  0  0
  129.7266  140.5124  155.2711 C   0  0  0  0  0  0  0  0  0  0  0  0
  131.1367  139.9980  155.5007 C   0  0  0  0  0  0  0  0  0  0  0  0
  131.8167  140.7513  156.5342 N   0  0  0  0  0  0  0  0  0  0  0  0
  131.6156  142.0940  156.9338 C   0  0  0  0  0  0  0  0  0  0  0  0
  131.0495  143.0543  156.2335 C   0  0  0  0  0  0  0  0  0  0  0  0
  130.4599  143.0573  154.8587 C   0  0  0  0  0  0  0  0  0  0  0  0
  129.6912  144.2685  154.7305 N   0  0  0  0  0  0  0  0  0  0  0  0
  130.5641  145.4140  154.6626 C   0  0  0  0  0  0  0  0  0  0  0  0
  130.4448  146.0522  153.2944 C   0  0  0  0  0  0  0  0  0  0  0  0
  129.1160  146.0812  152.9532 O   0  0  0  0  0  0  0  0  0  0  0  0
  128.8609  146.1986  151.5916 C   0  0  0  0  0  0  0  0  0  0  0  0
  127.4559  145.7655  151.3676 C   0  0  0  0  0  0  0  0  0  0  0  0
  126.9739  145.0642  150.3858 C   0  0  0  0  0  0  0  0  0  0  0  0
  1  2  1  0
  2  3  2  0
  3  4  1  0
  4  5  1  0
  4  6  1  0
  6  7  1  0
  7  8  1  0
  8  9  2  0
  9 10  1  0
 10 11  1  0
 11 12  1  0
 12 13  1  0
 13 14  2  0
 14 15  1  0
 15 16  1  0
 16 17  1  0
 17 18  1  0
 18 19  1  0
 19 20  1  0
 20 21  1  0
 21 22  2  0
 22  2  1  0
 15  9  1  0
M  END
$$$$
