
     RDKit          3D

 25 26  0  0  0  0  0  0  0  0999 V2000
  296.3878  122.1064   18.7463 C   0  0  0  0  0  0  0  0  0  0  0  0
  297.7063  121.5971   19.2239 C   0  0  0  0  0  0  0  0  0  0  0  0
  298.5367  122.6462   19.6043 O   0  0  0  0  0  0  0  0  0  0  0  0
  298.1518  123.9481   19.7432 C   0  0  0  0  0  0  0  0  0  0  0  0
  296.9785  124.2904   20.3647 C   0  0  0  0  0  0  0  0  0  0  0  0
  296.6310  125.6306   20.4821 C   0  0  0  0  0  0  0  0  0  0  0  0
  297.4297  126.6317   19.9924 C   0  0  0  0  0  0  0  0  0  0  0  0
  296.9871  128.0319   20.1596 C   0  0  0  0  0  0  0  0  0  0  0  0
  297.8962  128.8654   19.4303 N   0  0  0  0  0  0  0  0  0  0  0  0
  298.9121  129.4877   20.2085 C   0  0  0  0  0  0  0  0  0  0  0  0
  298.4958  129.8911   21.5809 C   0  0  0  0  0  0  0  0  0  0  0  0
  300.1724  128.6543   20.1778 C   0  0  0  0  0  0  0  0  0  0  0  0
  301.2545  129.5316   20.4018 O   0  0  0  0  0  0  0  0  0  0  0  0
  300.2048  127.6081   21.2242 C   0  0  0  0  0  0  0  0  0  0  0  0
  301.2958  127.5476   22.0759 C   0  0  0  0  0  0  0  0  0  0  0  0
  302.2874  128.4550   21.9137 F   0  0  0  0  0  0  0  0  0  0  0  0
  301.3419  126.5768   23.0540 C   0  0  0  0  0  0  0  0  0  0  0  0
  300.3118  125.6494   23.2077 C   0  0  0  0  0  0  0  0  0  0  0  0
  299.2238  125.7069   22.3609 C   0  0  0  0  0  0  0  0  0  0  0  0
  299.1967  126.6824   21.3920 C   0  0  0  0  0  0  0  0  0  0  0  0
  297.7982  126.7141   20.3363 Cl  0  0  0  0  0  0  0  0  0  0  0  0
  298.6050  126.2895   19.3697 C   0  0  0  0  0  0  0  0  0  0  0  0
  298.9539  124.9642   19.2507 C   0  0  0  0  0  0  0  0  0  0  0  0
  300.1348  124.6544   18.6232 O   0  0  0  0  0  0  0  0  0  0  0  0
  301.3985  124.7344   19.2525 C   0  0  0  0  0  0  0  0  0  0  0  0
  1  2  1  0
  2  3  1  0
  3  4  1  0
  4  5  2  0
  5  6  1  0
  6  7  2  0
  7  8  1  0
  8  9  1  0
  9 10  1  0
 10 11  1  0
 10 12  1  0
 12 13  1  0
 12 14  1  0
 14 15  2  0
 15 16  1  0
 15 17  1  0
 17 18  2  0
 18 19  1  0
 19 20  2  0
 20 21  1  0
  7 22  1  0
 22 23  2  0
 23 24  1  0
 24 25  1  0
 23  4  1  0
 20 14  1  0
M  END
$$$$
