
     RDKit          3D

 25 26  0  0  0  0  0  0  0  0999 V2000
  130.2109  102.2720   75.0357 C   0  0  0  0  0  0  0  0  0  0  0  0
  129.7132  103.3308   74.1101 C   0  0  0  0  0  0  0  0  0  0  0  0
  128.8590  102.7933   73.1527 O   0  0  0  0  0  0  0  0  0  0  0  0
  129.0688  102.8163   71.8046 C   0  0  0  0  0  0  0  0  0  0  0  0
  130.1451  102.1886   71.2320 C   0  0  0  0  0  0  0  0  0  0  0  0
  130.3145  102.2401   69.8538 C   0  0  0  0  0  0  0  0  0  0  0  0
  129.4334  102.9039   69.0397 C   0  0  0  0  0  0  0  0  0  0  0  0
  129.6863  102.9094   67.5835 C   0  0  0  0  0  0  0  0  0  0  0  0
  128.7317  103.7910   66.9797 N   0  0  0  0  0  0  0  0  0  0  0  0
  129.0578  104.2386   65.6690 C   0  0  0  0  0  0  0  0  0  0  0  0
  128.4728  103.4294   64.5633 C   0  0  0  0  0  0  0  0  0  0  0  0
  128.7870  105.7201   65.5446 C   0  0  0  0  0  0  0  0  0  0  0  0
  129.5616  106.3669   66.5307 O   0  0  0  0  0  0  0  0  0  0  0  0
  129.1672  106.2732   64.2256 C   0  0  0  0  0  0  0  0  0  0  0  0
  130.4232  105.9854   63.7165 C   0  0  0  0  0  0  0  0  0  0  0  0
  131.2498  105.2045   64.4512 F   0  0  0  0  0  0  0  0  0  0  0  0
  130.7931  106.4959   62.4901 C   0  0  0  0  0  0  0  0  0  0  0  0
  129.9297  107.2989   61.7457 C   0  0  0  0  0  0  0  0  0  0  0  0
  128.6781  107.5875   62.2500 C   0  0  0  0  0  0  0  0  0  0  0  0
  128.3280  107.0690   63.4747 C   0  0  0  0  0  0  0  0  0  0  0  0
  126.7311  107.4660   64.0778 Cl  0  0  0  0  0  0  0  0  0  0  0  0
  128.3554  103.5329   69.6126 C   0  0  0  0  0  0  0  0  0  0  0  0
  128.1825  103.4851   70.9765 C   0  0  0  0  0  0  0  0  0  0  0  0
  127.0952  104.1235   71.5191 O   0  0  0  0  0  0  0  0  0  0  0  0
  126.0995  104.7644   70.7462 C   0  0  0  0  0  0  0  0  0  0  0  0
  1  2  1  0
  2  3  1  0
  3  4  1  0
  4  5  2  0
  5  6  1  0
  6  7  2  0
  7  8  1  0
  8  9  1  0
  9 10  1  0
 10 11  1  0
 10 12  1  0
 12 13  1  0
 12 14  1  0
 14 15  2  0
 15 16  1  0
 15 17  1  0
 17 18  2  0
 18 19  1  0
 19 20  2  0
 20 21  1  0
  7 22  1  0
 22 23  2  0
 23 24  1  0
 24 25  1  0
 23  4  1  0
 20 14  1  0
M  END
$$$$
