
     RDKit          3D

 21 22  0  0  0  0  0  0  0  0999 V2000
  149.1801  158.5670  156.5985 C   0  0  0  0  0  0  0  0  0  0  0  0
  149.6784  158.4919  155.3778 C   0  0  0  0  0  0  0  0  0  0  0  0
  149.8284  157.1770  154.7323 C   0  0  0  0  0  0  0  0  0  0  0  0
  150.7285  156.2811  155.5729 C   0  0  0  0  0  0  0  0  0  0  0  0
  150.4404  157.3649  153.4054 N   0  0  0  0  0  0  0  0  0  0  0  0
  150.4833  156.3086  152.4629 C   0  0  0  0  0  0  0  0  0  0  0  0
  150.0396  155.1827  152.8585 O   0  0  0  0  0  0  0  0  0  0  0  0
  150.9887  156.4599  151.1471 N   0  0  0  0  0  0  0  0  0  0  0  0
  151.2240  155.3010  150.3227 C   0  0  0  0  0  0  0  0  0  0  0  0
  152.6043  155.2734  149.7037 C   0  0  0  0  0  0  0  0  0  0  0  0
  152.7287  154.0857  148.8048 C   0  0  0  0  0  0  0  0  0  0  0  0
  154.1568  153.6716  148.5963 C   0  0  0  0  0  0  0  0  0  0  0  0
  154.2697  152.6125  147.5632 C   0  0  0  0  0  0  0  0  0  0  0  0
  153.2417  152.0347  146.8345 C   0  0  0  0  0  0  0  0  0  0  0  0
  153.7426  151.1420  145.9884 N   0  0  0  0  0  0  0  0  0  0  0  0
  155.0819  151.1244  146.1516 C   0  0  0  0  0  0  0  0  0  0  0  0
  156.0707  150.3795  145.5317 C   0  0  0  0  0  0  0  0  0  0  0  0
  157.3845  150.5266  145.8706 C   0  0  0  0  0  0  0  0  0  0  0  0
  157.7470  151.4376  146.8522 C   0  0  0  0  0  0  0  0  0  0  0  0
  156.7800  152.1804  147.4714 C   0  0  0  0  0  0  0  0  0  0  0  0
  155.4450  152.0480  147.1449 C   0  0  0  0  0  0  0  0  0  0  0  0
  1  2  2  0
  2  3  1  0
  3  4  1  0
  3  5  1  0
  5  6  1  0
  6  7  2  0
  6  8  1  0
  8  9  1  0
  9 10  1  0
 10 11  1  0
 11 12  1  0
 12 13  1  0
 13 14  2  0
 14 15  1  0
 15 16  1  0
 16 17  2  0
 17 18  1  0
 18 19  2  0
 19 20  1  0
 20 21  2  0
 21 13  1  0
 21 16  1  0
M  END
$$$$
