
     RDKit          3D

  5  4  0  0  0  0  0  0  0  0999 V2000
  159.3037  150.5208  170.2791 Cl  0  0  0  0  0  0  0  0  0  0  0  0
  158.1530  149.5432  171.2346 C   0  0  0  0  0  0  0  0  0  0  0  0
  158.0261  150.2430  172.5872 C   0  0  0  0  0  0  0  0  0  0  0  0
  157.0085  149.3880  173.3518 C   0  0  0  0  0  0  0  0  0  0  0  0
  156.8594  150.1536  174.9678 Cl  0  0  0  0  0  0  0  0  0  0  0  0
  1  2  1  0
  2  3  1  0
  3  4  1  0
  4  5  1  0
M  END
$$$$
