
     RDKit          3D

 22 23  0  0  0  0  0  0  0  0999 V2000
  151.2937  148.4334  140.4095 C   0  0  0  0  0  0  0  0  0  0  0  0
  151.3954  148.7656  141.6777 C   0  0  0  0  0  0  0  0  0  0  0  0
  151.2159  150.0818  142.2160 N   0  0  0  0  0  2  0  0  0  0  0  0
  152.1420  150.0681  143.2925 C   0  0  0  0  0  0  0  0  0  0  0  0
  152.8295  151.1224  143.6944 C   0  0  0  0  0  0  0  0  0  0  0  0
  153.7639  150.9804  144.7499 N   0  0  0  0  0  0  0  0  0  0  0  0
  154.2498  152.1357  145.4431 C   0  0  0  0  0  0  0  0  0  0  0  0
  154.3759  153.6325  144.5483 Cl  0  0  0  0  0  0  0  0  0  0  0  0
  154.5593  151.9956  146.6687 N   0  0  0  0  0  0  0  0  0  0  0  0
  155.6012  152.6134  147.3541 C   0  0  0  0  0  0  0  0  0  0  0  0
  156.8741  152.5242  146.8390 C   0  0  0  0  0  0  0  0  0  0  0  0
  157.9478  153.1051  147.4565 C   0  0  0  0  0  0  0  0  0  0  0  0
  157.7484  153.7968  148.6240 C   0  0  0  0  0  0  0  0  0  0  0  0
  156.4777  153.8877  149.1411 C   0  0  0  0  0  0  0  0  0  0  0  0
  155.3959  153.3046  148.5224 C   0  0  0  0  0  0  0  0  0  0  0  0
  154.0393  153.4439  149.1402 C   0  0  0  0  0  0  0  0  0  0  0  0
  153.3310  154.5882  148.4470 C   0  0  0  0  0  0  0  0  0  0  0  0
  151.9126  154.6862  148.9904 C   0  0  0  0  0  0  0  0  0  0  0  0
  151.9970  154.7693  150.3703 O   0  0  0  0  0  0  0  0  0  0  0  0
  152.1510  148.7100  143.8104 C   0  0  0  0  0  0  0  0  0  0  0  0
  151.7027  147.9362  142.8363 C   0  0  0  0  0  0  0  0  0  0  0  0
  151.4876  146.1952  142.8608 Cl  0  0  0  0  0  0  0  0  0  0  0  0
  1  2  2  0
  2  3  1  0
  3  4  1  0
  4  5  2  3
  5  6  1  0
  6  7  1  0
  7  8  1  0
  7  9  2  3
  9 10  1  0
 10 11  2  0
 11 12  1  0
 12 13  2  0
 13 14  1  0
 14 15  2  0
 15 16  1  0
 16 17  1  0
 17 18  1  0
 18 19  1  0
  4 20  1  0
 20 21  2  0
 21 22  1  0
 21  2  1  0
 15 10  1  0
M  CHG  1   3   1
M  RAD  1   3   3
M  END
$$$$
