
     RDKit          3D

 22 23  0  0  0  0  0  0  0  0999 V2000
  147.8315  144.6719  145.1344 C   0  0  0  0  0  0  0  0  0  0  0  0
  148.2253  145.9227  145.2321 C   0  0  0  0  0  0  0  0  0  0  0  0
  148.9812  146.6422  144.2496 N   0  0  0  0  0  2  0  0  0  0  0  0
  149.7629  147.4950  145.0733 C   0  0  0  0  0  0  0  0  0  0  0  0
  150.9977  147.8715  144.7922 C   0  0  0  0  0  0  0  0  0  0  0  0
  151.6401  148.8213  145.6245 N   0  0  0  0  0  0  0  0  0  0  0  0
  152.8820  149.4101  145.2217 C   0  0  0  0  0  0  0  0  0  0  0  0
  153.7939  148.6119  143.9615 Cl  0  0  0  0  0  0  0  0  0  0  0  0
  153.2410  150.4788  145.8103 N   0  0  0  0  0  0  0  0  0  0  0  0
  154.5264  151.0053  145.8982 C   0  0  0  0  0  0  0  0  0  0  0  0
  155.5883  150.1376  146.0129 C   0  0  0  0  0  0  0  0  0  0  0  0
  156.8793  150.5809  146.1043 C   0  0  0  0  0  0  0  0  0  0  0  0
  157.1214  151.9307  146.0806 C   0  0  0  0  0  0  0  0  0  0  0  0
  156.0625  152.8001  145.9660 C   0  0  0  0  0  0  0  0  0  0  0  0
  154.7630  152.3575  145.8740 C   0  0  0  0  0  0  0  0  0  0  0  0
  153.6576  153.3596  145.7503 C   0  0  0  0  0  0  0  0  0  0  0  0
  152.8891  153.3634  147.0546 C   0  0  0  0  0  0  0  0  0  0  0  0
  151.7049  154.3104  146.9214 C   0  0  0  0  0  0  0  0  0  0  0  0
  152.0951  155.5424  147.4192 O   0  0  0  0  0  0  0  0  0  0  0  0
  148.9355  147.8310  146.2201 C   0  0  0  0  0  0  0  0  0  0  0  0
  148.0172  146.8836  146.3082 C   0  0  0  0  0  0  0  0  0  0  0  0
  146.7328  146.7403  147.4946 Cl  0  0  0  0  0  0  0  0  0  0  0  0
  1  2  2  0
  2  3  1  0
  3  4  1  0
  4  5  2  3
  5  6  1  0
  6  7  1  0
  7  8  1  0
  7  9  2  3
  9 10  1  0
 10 11  2  0
 11 12  1  0
 12 13  2  0
 13 14  1  0
 14 15  2  0
 15 16  1  0
 16 17  1  0
 17 18  1  0
 18 19  1  0
  4 20  1  0
 20 21  2  0
 21 22  1  0
 21  2  1  0
 15 10  1  0
M  CHG  1   3   1
M  RAD  1   3   3
M  END
$$$$
