
     RDKit          3D

 18 19  0  0  0  0  0  0  0  0999 V2000
  150.8384  158.7759  159.4136 C   0  0  0  0  0  0  0  0  0  0  0  0
  149.3870  158.3275  159.2405 C   0  0  0  0  0  0  0  0  0  0  0  0
  149.3215  156.9348  158.6916 C   0  0  0  0  0  0  0  0  0  0  0  0
  149.7735  156.8076  157.3661 O   0  0  0  0  0  0  0  0  0  0  0  0
  149.7597  155.5744  156.7551 C   0  0  0  0  0  0  0  0  0  0  0  0
  149.2565  154.5967  157.3586 O   0  0  0  0  0  0  0  0  0  0  0  0
  150.3054  155.3333  155.4232 C   0  0  0  0  0  0  0  0  0  0  0  0
  150.2834  154.0820  154.8456 C   0  0  0  0  0  0  0  0  0  0  0  0
  150.8038  153.8700  153.5845 C   0  0  0  0  0  0  0  0  0  0  0  0
  150.7518  152.5792  153.0538 O   0  0  0  0  0  0  0  0  0  0  0  0
  151.3681  154.8943  152.8447 C   0  0  0  0  0  0  0  0  0  0  0  0
  151.8844  154.6696  151.5863 C   0  0  0  0  0  0  0  0  0  0  0  0
  152.4464  155.7340  150.8719 C   0  0  0  0  0  0  0  0  0  0  0  0
  152.4870  157.0013  151.4163 C   0  0  0  0  0  0  0  0  0  0  0  0
  151.9634  157.1904  152.6729 C   0  0  0  0  0  0  0  0  0  0  0  0
  151.3976  156.1526  153.4093 C   0  0  0  0  0  0  0  0  0  0  0  0
  150.8747  156.3536  154.6703 C   0  0  0  0  0  0  0  0  0  0  0  0
  150.9053  157.6122  155.2326 O   0  0  0  0  0  0  0  0  0  0  0  0
  1  2  1  0
  2  3  1  0
  3  4  1  0
  4  5  1  0
  5  6  2  0
  5  7  1  0
  7  8  2  0
  8  9  1  0
  9 10  1  0
  9 11  2  0
 11 12  1  0
 12 13  2  0
 13 14  1  0
 14 15  2  0
 15 16  1  0
 16 17  2  0
 17 18  1  0
 17  7  1  0
 16 11  1  0
M  END
$$$$
