
     RDKit          3D

 27 29  0  0  0  0  0  0  0  0999 V2000
   21.9642   24.5487   31.5910 C   0  0  0  0  0  0  0  0  0  0  0  0
   20.9026   23.5145   31.7892 C   0  0  0  0  0  0  0  0  0  0  0  0
   19.5385   23.9662   31.2957 C   0  0  0  0  0  0  0  0  0  0  0  0
   19.3902   25.4250   31.6770 C   0  0  0  0  0  0  0  0  0  0  0  0
   19.4572   23.7485   29.9306 O   0  0  0  0  0  0  0  0  0  0  0  0
   18.3541   23.6328   29.1350 C   0  0  0  0  0  0  0  0  0  0  0  0
   17.1730   23.1329   29.6319 C   0  0  0  0  0  0  0  0  0  0  0  0
   16.0524   23.0221   28.7997 C   0  0  0  0  0  0  0  0  0  0  0  0
   16.1670   23.4241   27.4832 C   0  0  0  0  0  0  0  0  0  0  0  0
   17.3389   23.9293   26.9571 C   0  0  0  0  0  0  0  0  0  0  0  0
   17.4168   24.3342   25.5896 N   0  0  0  0  0  0  0  0  0  0  0  0
   16.5209   23.7837   24.6288 C   0  0  0  0  0  0  0  0  0  0  0  0
   15.6146   23.0361   25.0647 O   0  0  0  0  0  0  0  0  0  0  0  0
   16.6421   24.0744   23.1637 C   0  0  0  0  0  0  0  0  0  0  0  0
   17.6970   25.0065   22.9004 N   0  0  0  0  0  0  0  0  0  0  0  0
   17.5422   26.3332   23.0255 C   0  0  0  0  0  0  0  0  0  0  0  0
   16.4304   26.8267   23.3910 O   0  0  0  0  0  0  0  0  0  0  0  0
   18.5483   27.1908   22.7716 N   0  0  0  0  0  0  0  0  0  0  0  0
   19.7529   26.7467   22.3808 C   0  0  0  0  0  0  0  0  0  0  0  0
   20.7846   27.6401   22.1209 C   0  0  0  0  0  0  0  0  0  0  0  0
   22.0059   27.1132   21.7199 C   0  0  0  0  0  0  0  0  0  0  0  0
   22.2104   25.7550   21.5779 C   0  0  0  0  0  0  0  0  0  0  0  0
   21.1811   24.8733   21.8378 C   0  0  0  0  0  0  0  0  0  0  0  0
   19.9544   25.3916   22.2400 C   0  0  0  0  0  0  0  0  0  0  0  0
   18.8945   24.5417   22.5106 C   0  0  0  0  0  0  0  0  0  0  0  0
   19.0831   23.2963   22.3801 O   0  0  0  0  0  0  0  0  0  0  0  0
   18.4204   24.0248   27.8017 C   0  0  0  0  0  0  0  0  0  0  0  0
  1  2  1  0
  2  3  1  0
  3  4  1  0
  3  5  1  0
  5  6  1  0
  6  7  2  0
  7  8  1  0
  8  9  2  0
  9 10  1  0
 10 11  1  0
 11 12  1  0
 12 13  2  0
 12 14  1  0
 14 15  1  0
 15 16  1  0
 16 17  2  0
 16 18  1  0
 18 19  1  0
 19 20  2  0
 20 21  1  0
 21 22  2  0
 22 23  1  0
 23 24  2  0
 24 25  1  0
 25 26  2  0
 10 27  2  0
 27  6  1  0
 25 15  1  0
 24 19  1  0
M  END
$$$$
