
     RDKit          3D

 27 29  0  0  0  0  0  0  0  0999 V2000
  119.7719  152.0212  121.9788 C   0  0  0  0  0  0  0  0  0  0  0  0
  120.1723  150.8961  122.7432 O   0  0  0  0  0  0  0  0  0  0  0  0
  120.1972  150.9937  124.1302 C   0  0  0  0  0  0  0  0  0  0  0  0
  120.7273  152.1072  124.7470 C   0  0  0  0  0  0  0  0  0  0  0  0
  120.7804  152.2620  126.1103 C   0  0  0  0  0  0  0  0  0  0  0  0
  121.3078  153.3700  126.7310 O   0  0  0  0  0  0  0  0  0  0  0  0
  120.2772  151.2508  126.9050 C   0  0  0  0  0  0  0  0  0  0  0  0
  120.2979  151.3394  128.2849 C   0  0  0  0  0  0  0  0  0  0  0  0
  120.7842  152.3595  128.8056 O   0  0  0  0  0  0  0  0  0  0  0  0
  119.7740  150.2829  128.9994 C   0  0  0  0  0  0  0  0  0  0  0  0
  119.2405  149.1631  128.4047 C   0  0  0  0  0  0  0  0  0  0  0  0
  118.6936  148.0614  129.1865 C   0  0  0  0  0  0  0  0  0  0  0  0
  117.7014  147.2210  128.7433 C   0  0  0  0  0  0  0  0  0  0  0  0
  117.2191  146.1873  129.5296 C   0  0  0  0  0  0  0  0  0  0  0  0
  116.2234  145.3784  129.0296 O   0  0  0  0  0  0  0  0  0  0  0  0
  115.5273  145.7367  127.8563 C   0  0  0  0  0  0  0  0  0  0  0  0
  117.7337  145.9794  130.7910 C   0  0  0  0  0  0  0  0  0  0  0  0
  117.2244  144.9317  131.5508 O   0  0  0  0  0  0  0  0  0  0  0  0
  118.7346  146.8152  131.2573 C   0  0  0  0  0  0  0  0  0  0  0  0
  119.2462  146.6037  132.5188 O   0  0  0  0  0  0  0  0  0  0  0  0
  120.3486  145.7061  132.6443 C   0  0  0  0  0  0  0  0  0  0  0  0
  119.2095  147.8437  130.4660 C   0  0  0  0  0  0  0  0  0  0  0  0
  120.2069  148.6964  130.8999 O   0  0  0  0  0  0  0  0  0  0  0  0
  121.5522  148.2458  130.6891 C   0  0  0  0  0  0  0  0  0  0  0  0
  119.2509  149.1409  127.0923 O   0  0  0  0  0  0  0  0  0  0  0  0
  119.7355  150.1153  126.3435 C   0  0  0  0  0  0  0  0  0  0  0  0
  119.7033  150.0025  124.9484 C   0  0  0  0  0  0  0  0  0  0  0  0
  1  2  1  0
  2  3  1  0
  3  4  2  0
  4  5  1  0
  5  6  1  0
  5  7  2  0
  7  8  1  0
  8  9  2  0
  8 10  1  0
 10 11  2  0
 11 12  1  0
 12 13  2  0
 13 14  1  0
 14 15  1  0
 15 16  1  0
 14 17  2  0
 17 18  1  0
 17 19  1  0
 19 20  1  0
 20 21  1  0
 19 22  2  0
 22 23  1  0
 23 24  1  0
 11 25  1  0
 25 26  1  0
 26 27  2  0
 27  3  1  0
 26  7  1  0
 22 12  1  0
M  END
$$$$
