
     RDKit          3D

 21 22  0  0  0  0  0  0  0  0999 V2000
  127.7866  146.6067  151.3398 C   0  0  0  0  0  0  0  0  0  0  0  0
  127.4538  145.8144  150.1440 C   0  0  0  0  0  0  0  0  0  0  0  0
  127.7846  144.5619  149.8857 C   0  0  0  0  0  0  0  0  0  0  0  0
  128.7715  143.7764  151.1133 Cl  0  0  0  0  0  0  0  0  0  0  0  0
  127.3763  143.8476  148.6941 C   0  0  0  0  0  0  0  0  0  0  0  0
  126.5210  144.8212  147.4262 Cl  0  0  0  0  0  0  0  0  0  0  0  0
  127.5184  142.5797  148.4310 C   0  0  0  0  0  0  0  0  0  0  0  0
  127.4897  141.8649  147.1839 C   0  0  0  0  0  0  0  0  0  0  0  0
  127.3814  140.5914  147.1150 N   0  0  0  0  0  0  0  0  0  0  0  0
  127.3979  139.6968  146.0499 C   0  0  0  0  0  0  0  0  0  0  0  0
  127.0605  138.4012  146.2838 N   0  0  0  0  0  0  0  0  0  0  0  0
  127.0710  137.4181  145.4017 C   0  0  0  0  0  0  0  0  0  0  0  0
  126.8041  136.0959  145.5107 N   0  0  0  0  0  0  0  0  0  0  0  0
  126.5332  134.7535  145.6214 C   0  0  0  0  0  0  0  0  0  0  0  0
  126.4864  134.3775  147.1213 C   0  0  0  0  0  0  0  0  0  0  0  0
  125.2017  134.1553  147.5390 O   0  0  0  0  0  0  0  0  0  0  0  0
  127.4911  137.8347  144.0694 C   0  0  0  0  0  0  0  0  0  0  0  0
  127.8295  139.1055  143.7995 C   0  0  0  0  0  0  0  0  0  0  0  0
  127.7730  140.0011  144.7978 N   0  0  0  0  0  0  0  0  0  0  0  0
  128.0785  138.8201  142.5508 C   0  0  0  0  0  0  0  0  0  0  0  0
  127.7186  137.4670  142.8438 C   0  0  0  0  0  0  0  0  0  0  0  0
  1  2  1  0
  2  3  2  3
  3  4  1  0
  3  5  1  0
  5  6  1  0
  5  7  2  3
  7  8  1  0
  8  9  2  3
  9 10  1  0
 10 11  1  0
 11 12  2  0
 12 13  1  0
 13 14  1  0
 14 15  1  0
 15 16  1  0
 12 17  1  0
 17 18  1  0
 18 19  1  0
 18 20  2  0
 20 21  1  0
 19 10  2  0
 21 17  2  0
M  END
$$$$
