
     RDKit          3D

 21 22  0  0  0  0  0  0  0  0999 V2000
  127.8359  146.5790  151.2696 C   0  0  0  0  0  0  0  0  0  0  0  0
  127.5070  145.8112  150.0568 C   0  0  0  0  0  0  0  0  0  0  0  0
  127.7235  144.5285  149.8279 C   0  0  0  0  0  0  0  0  0  0  0  0
  128.5558  143.6650  151.1162 Cl  0  0  0  0  0  0  0  0  0  0  0  0
  127.3125  143.8423  148.6208 C   0  0  0  0  0  0  0  0  0  0  0  0
  126.4728  144.8499  147.3692 Cl  0  0  0  0  0  0  0  0  0  0  0  0
  127.4421  142.5784  148.3333 C   0  0  0  0  0  0  0  0  0  0  0  0
  127.4415  141.8924  147.0697 C   0  0  0  0  0  0  0  0  0  0  0  0
  127.3382  140.6206  146.9695 N   0  0  0  0  0  0  0  0  0  0  0  0
  127.4160  139.7474  145.8893 C   0  0  0  0  0  0  0  0  0  0  0  0
  127.1231  138.4357  146.0914 N   0  0  0  0  0  0  0  0  0  0  0  0
  127.1938  137.4704  145.1926 C   0  0  0  0  0  0  0  0  0  0  0  0
  126.9756  136.1372  145.2711 N   0  0  0  0  0  0  0  0  0  0  0  0
  126.7540  134.7836  145.3508 C   0  0  0  0  0  0  0  0  0  0  0  0
  126.3476  134.4306  146.8012 C   0  0  0  0  0  0  0  0  0  0  0  0
  126.4305  133.0830  147.0275 O   0  0  0  0  0  0  0  0  0  0  0  0
  127.6308  137.9277  143.8792 C   0  0  0  0  0  0  0  0  0  0  0  0
  127.9265  139.2154  143.6408 C   0  0  0  0  0  0  0  0  0  0  0  0
  127.8104  140.0892  144.6530 N   0  0  0  0  0  0  0  0  0  0  0  0
  128.2177  138.9631  142.3940 C   0  0  0  0  0  0  0  0  0  0  0  0
  127.9031  137.5920  142.6535 C   0  0  0  0  0  0  0  0  0  0  0  0
  1  2  1  0
  2  3  2  3
  3  4  1  0
  3  5  1  0
  5  6  1  0
  5  7  2  3
  7  8  1  0
  8  9  2  3
  9 10  1  0
 10 11  1  0
 11 12  2  0
 12 13  1  0
 13 14  1  0
 14 15  1  0
 15 16  1  0
 12 17  1  0
 17 18  1  0
 18 19  1  0
 18 20  2  0
 20 21  1  0
 19 10  2  0
 21 17  2  0
M  END
$$$$
