
     RDKit          3D

 21 23  0  0  0  0  0  0  0  0999 V2000
  150.5570  147.8015  140.2174 O   0  0  0  0  0  0  0  0  0  0  0  0
  151.5964  148.7554  140.1986 C   0  0  0  0  0  0  0  0  0  0  0  0
  152.5100  148.5507  141.4157 C   0  0  0  0  0  0  0  0  0  0  0  0
  151.6618  148.4328  142.5702 N   0  0  0  0  0  0  0  0  0  0  0  0
  151.9740  149.1816  143.7256 C   0  0  0  0  0  0  0  0  0  0  0  0
  152.8976  150.0818  143.7148 N   0  0  0  0  0  0  0  0  0  0  0  0
  153.2297  150.8477  144.8644 C   0  0  0  0  0  0  0  0  0  0  0  0
  153.9401  152.0644  144.8736 N   0  0  0  0  0  0  0  0  0  0  0  0
  154.7944  152.4982  145.9155 C   0  0  0  0  0  0  0  0  0  0  0  0
  154.3917  153.4792  146.8141 C   0  0  0  0  0  0  0  0  0  0  0  0
  155.2298  153.8940  147.8236 C   0  0  0  0  0  0  0  0  0  0  0  0
  156.4979  153.3644  147.9949 C   0  0  0  0  0  0  0  0  0  0  0  0
  157.5609  153.8858  149.2811 Cl  0  0  0  0  0  0  0  0  0  0  0  0
  156.9118  152.3897  147.1102 C   0  0  0  0  0  0  0  0  0  0  0  0
  158.5241  151.6771  147.2770 Cl  0  0  0  0  0  0  0  0  0  0  0  0
  156.0566  151.9762  146.0914 C   0  0  0  0  0  0  0  0  0  0  0  0
  152.8497  150.3924  146.0233 C   0  0  0  0  0  0  0  0  0  0  0  0
  151.6981  149.8192  146.1029 C   0  0  0  0  0  0  0  0  0  0  0  0
  150.3935  149.3694  146.5512 C   0  0  0  0  0  0  0  0  0  0  0  0
  150.3778  148.3777  145.7031 C   0  0  0  0  0  0  0  0  0  0  0  0
  151.2641  148.9752  145.0029 C   0  0  0  0  0  0  0  0  0  0  0  0
  1  2  1  0
  2  3  1  0
  3  4  1  0
  4  5  1  0
  5  6  2  0
  6  7  1  0
  7  8  1  0
  8  9  1  0
  9 10  2  0
 10 11  1  0
 11 12  2  0
 12 13  1  0
 12 14  1  0
 14 15  1  0
 14 16  2  0
  7 17  2  0
 17 18  2  0
 18 19  1  0
 19 20  2  0
 20 21  2  0
 21  5  1  0
 16  9  1  0
 21 18  1  0
M  END
$$$$
