
     RDKit          3D

 26 28  0  0  0  0  0  0  0  0999 V2000
  149.6129  148.1869  141.1335 O   0  0  0  0  0  0  0  0  0  0  0  0
  150.3715  147.5509  141.9254 C   0  0  0  0  0  0  0  0  0  0  0  0
  150.6657  146.2086  141.5500 N   0  0  0  0  0  0  0  0  0  0  0  0
  150.1180  145.6477  140.3265 C   0  0  0  0  0  0  0  0  0  0  0  0
  150.8804  146.0307  139.1356 C   0  0  0  0  0  0  0  0  0  0  0  0
  150.4361  146.3609  137.8894 C   0  0  0  0  0  0  0  0  0  0  0  0
  151.5493  146.6427  137.1233 C   0  0  0  0  0  0  0  0  0  0  0  0
  152.6492  146.4700  137.9477 C   0  0  0  0  0  0  0  0  0  0  0  0
  152.1868  146.1152  139.0997 O   0  0  0  0  0  0  0  0  0  0  0  0
  150.8933  148.1892  143.1405 C   0  0  0  0  0  0  0  0  0  0  0  0
  152.3570  147.8354  143.2790 C   0  0  0  0  0  0  0  0  0  0  0  0
  152.8663  148.4902  144.5418 C   0  0  0  0  0  0  0  0  0  0  0  0
  152.8708  149.9270  144.4037 N   0  0  0  0  0  0  0  0  0  0  0  0
  152.5789  150.7013  145.8943 S   0  0  0  0  0  6  0  0  0  0  0  0
  151.5545  151.7831  145.6655 O   0  0  0  0  0  0  0  0  0  0  0  0
  152.0928  149.6747  146.8705 O   0  0  0  0  0  0  0  0  0  0  0  0
  154.1012  151.4052  146.4484 C   0  0  0  0  0  0  0  0  0  0  0  0
  154.1804  152.6982  146.8859 C   0  0  0  0  0  0  0  0  0  0  0  0
  155.3752  153.2143  147.3090 C   0  0  0  0  0  0  0  0  0  0  0  0
  156.5408  152.4720  147.3164 C   0  0  0  0  0  0  0  0  0  0  0  0
  158.0583  153.1647  147.8659 Cl  0  0  0  0  0  0  0  0  0  0  0  0
  156.4628  151.1656  146.8748 C   0  0  0  0  0  0  0  0  0  0  0  0
  157.5871  150.4100  146.8691 F   0  0  0  0  0  0  0  0  0  0  0  0
  155.2486  150.6315  146.4418 C   0  0  0  0  0  0  0  0  0  0  0  0
  152.0687  150.4034  143.3209 C   0  0  0  0  0  0  0  0  0  0  0  0
  150.7829  149.6852  143.1215 C   0  0  0  0  0  0  0  0  0  0  0  0
  1  2  2  0
  2  3  1  0
  3  4  1  0
  4  5  1  0
  5  6  2  0
  6  7  1  0
  7  8  2  0
  8  9  1  0
  2 10  1  0
 10 11  1  0
 11 12  1  0
 12 13  1  0
 13 14  1  0
 14 15  2  0
 14 16  2  0
 14 17  1  0
 17 18  2  0
 18 19  1  0
 19 20  2  0
 20 21  1  0
 20 22  1  0
 22 23  1  0
 22 24  2  0
 13 25  1  0
 25 26  1  0
  9  5  1  0
 26 10  1  0
 24 17  1  0
M  END
$$$$
