
     RDKit          3D

 13 13  0  0  0  0  0  0  0  0999 V2000
   27.1646   24.3222   15.1336 O   0  0  0  0  0  1  0  0  0  0  0  0
   26.8251   23.4473   16.1626 N   0  0  0  0  0  0  0  0  0  0  0  0
   27.7214   23.2474   17.0572 C   0  0  0  0  0  0  0  0  0  0  0  0
   27.4562   22.4353   18.1763 N   0  0  0  0  0  0  0  0  0  0  0  0
   28.3877   22.2588   19.2229 C   0  0  0  0  0  0  0  0  0  0  0  0
   28.0070   21.4620   20.2987 C   0  0  0  0  0  0  0  0  0  0  0  0
   28.8884   21.2456   21.3444 C   0  0  0  0  0  0  0  0  0  0  0  0
   30.1509   21.7793   21.3857 C   0  0  0  0  0  0  0  0  0  0  0  0
   31.2206   21.4499   22.7457 Cl  0  0  0  0  0  0  0  0  0  0  0  0
   30.5229   22.5656   20.3213 C   0  0  0  0  0  0  0  0  0  0  0  0
   31.8208   23.1313   20.3250 N   0  0  0  0  0  0  0  0  0  0  0  0
   32.5143   23.9198   18.9515 Cl  0  0  0  0  0  0  0  0  0  0  0  0
   29.6588   22.8037   19.2566 C   0  0  0  0  0  0  0  0  0  0  0  0
  1  2  1  0
  2  3  2  3
  3  4  1  0
  4  5  1  0
  5  6  2  0
  6  7  1  0
  7  8  2  0
  8  9  1  0
  8 10  1  0
 10 11  1  0
 11 12  1  0
 10 13  2  0
 13  5  1  0
M  CHG  1   1  -1
M  END
$$$$
