
     RDKit          3D

 21 22  0  0  0  0  0  0  0  0999 V2000
   26.6043   17.2830   27.0516 C   0  0  0  0  0  0  0  0  0  0  0  0
   27.2491   18.3644   26.6552 C   0  0  0  0  0  0  0  0  0  0  0  0
   27.0508   19.7031   27.3030 C   0  0  2  0  0  0  0  0  0  0  0  0
   25.5371   19.9131   27.4214 C   0  0  0  0  0  0  0  0  0  0  0  0
   25.3304   21.2522   27.7327 O   0  0  0  0  0  0  0  0  0  0  0  0
   27.5985   20.7645   26.5135 N   0  0  0  0  0  4  0  0  0  0  0  0
   29.0284   20.9053   26.6062 C   0  0  0  0  0  0  0  0  0  0  0  0
   29.6402   20.9130   25.2613 C   0  0  0  0  0  0  0  0  0  0  0  0
   28.9358   20.3665   24.1799 C   0  0  0  0  0  0  0  0  0  0  0  0
   29.5604   20.3832   22.9613 C   0  0  0  0  0  0  0  0  0  0  0  0
   28.9284   19.8868   21.9636 O   0  0  0  0  0  0  0  0  0  0  0  0
   30.7587   20.8835   22.8017 O   0  0  0  0  0  0  0  0  0  0  0  0
   31.4429   21.4057   23.8090 C   0  0  0  0  0  0  0  0  0  0  0  0
   32.7068   21.9284   23.6092 C   0  0  0  0  0  0  0  0  0  0  0  0
   33.4216   22.4742   24.6518 C   0  0  0  0  0  0  0  0  0  0  0  0
   34.6926   23.0013   24.4589 O   0  0  0  0  0  0  0  0  0  0  0  0
   32.9176   22.5268   25.9356 C   0  0  0  0  0  0  0  0  0  0  0  0
   33.7050   23.1201   27.0475 C   0  0  0  0  0  0  0  0  0  0  0  0
   34.2445   22.0595   27.9911 C   0  0  0  0  0  0  0  0  0  0  0  0
   31.6438   21.9953   26.1167 C   0  0  0  0  0  0  0  0  0  0  0  0
   30.8993   21.4387   25.0906 C   0  0  0  0  0  0  0  0  0  0  0  0
  1  2  2  0
  2  3  1  0
  3  4  1  6
  4  5  1  0
  3  6  1  0
  6  7  1  0
  7  8  1  0
  8  9  2  0
  9 10  1  0
 10 11  2  0
 10 12  1  0
 12 13  1  0
 13 14  2  0
 14 15  1  0
 15 16  1  0
 15 17  2  0
 17 18  1  0
 18 19  1  0
 17 20  1  0
 20 21  2  0
 21  8  1  0
 21 13  1  0
M  CHG  1   6   1
M  END
$$$$
