
     RDKit          3D

 23 24  0  0  0  0  0  0  0  0999 V2000
    1.6719   28.2895   -9.4943 N   0  0  0  0  0  0  0  0  0  0  0  0
    2.0753   28.6037   -8.1435 C   0  0  0  0  0  0  0  0  0  0  0  0
    3.3319   28.3997   -7.8938 C   0  0  0  0  0  0  0  0  0  0  0  0
    4.2373   29.3257   -7.9099 C   0  0  0  0  0  0  0  0  0  0  0  0
    5.2270   29.4816   -6.8518 C   0  0  0  0  0  0  0  0  0  0  0  0
    5.6683   28.1806   -6.4213 N   0  0  0  0  0  0  0  0  0  0  0  0
    6.7886   27.6518   -7.1267 C   0  0  0  0  0  0  0  0  0  0  0  0
    8.0060   28.5572   -7.0754 C   0  0  0  0  0  0  0  0  0  0  0  0
    8.5298   28.7455   -8.4290 N   0  0  0  0  0  2  0  0  0  0  0  0
    9.7273   29.3776   -8.3158 O   0  0  0  0  0  0  0  0  0  0  0  0
    4.7174   30.1881   -5.6472 C   0  0  0  0  0  0  0  0  0  0  0  0
    5.6031   30.8820   -4.9843 N   0  0  0  0  0  0  0  0  0  0  0  0
    5.4146   31.3692   -3.6791 C   0  0  0  0  0  0  0  0  0  0  0  0
    4.3632   32.2329   -3.3663 C   0  0  0  0  0  0  0  0  0  0  0  0
    4.1630   32.7198   -2.0931 C   0  0  0  0  0  0  0  0  0  0  0  0
    5.0374   32.3343   -1.1002 C   0  0  0  0  0  0  0  0  0  0  0  0
    6.0910   31.4689   -1.4138 C   0  0  0  0  0  0  0  0  0  0  0  0
    6.2922   30.9817   -2.6861 C   0  0  0  0  0  0  0  0  0  0  0  0
    3.3723   30.1490   -5.2010 N   0  0  0  0  0  0  0  0  0  0  0  0
    2.5302   28.9681   -5.1956 C   0  0  0  0  0  0  0  0  0  0  0  0
    1.2891   29.2699   -5.9041 C   0  0  0  0  0  0  0  0  0  0  0  0
    1.1165   29.1040   -7.1801 C   0  0  0  0  0  0  0  0  0  0  0  0
   -0.4762   29.5356   -7.8413 Cl  0  0  0  0  0  0  0  0  0  0  0  0
  1  2  1  0
  2  3  2  0
  3  4  2  0
  4  5  1  0
  5  6  1  0
  6  7  1  0
  7  8  1  0
  8  9  1  0
  9 10  1  0
  5 11  1  0
 11 12  2  3
 12 13  1  0
 13 14  2  0
 14 15  1  0
 15 16  2  0
 16 17  1  0
 17 18  2  0
 11 19  1  0
 19 20  1  0
 20 21  1  0
 21 22  2  0
 22 23  1  0
 22  2  1  0
 18 13  1  0
M  CHG  1   9   1
M  RAD  1   9   3
M  END
$$$$
