
     RDKit          3D

 31 33  0  0  0  0  0  0  0  0999 V2000
  111.9900  143.6799  146.6883 C   0  0  0  0  0  0  0  0  0  0  0  0
  111.9912  144.8729  147.5164 C   0  0  0  0  0  0  0  0  0  0  0  0
  112.0114  145.8827  148.2292 C   0  0  0  0  0  0  0  0  0  0  0  0
  112.0553  147.0638  149.0820 C   0  0  0  0  0  0  0  0  0  0  0  0
  113.1746  146.7291  150.4200 S   0  0  0  0  0  6  0  0  0  0  0  0
  113.2156  145.2324  150.6155 O   0  0  0  0  0  0  0  0  0  0  0  0
  112.6736  147.3636  151.6724 O   0  0  0  0  0  0  0  0  0  0  0  0
  114.7801  147.2577  150.0143 C   0  0  0  0  0  0  0  0  0  0  0  0
  115.6864  147.4884  151.0391 C   0  0  0  0  0  0  0  0  0  0  0  0
  116.9659  147.9033  150.7398 C   0  0  0  0  0  0  0  0  0  0  0  0
  117.3206  148.0814  149.4087 C   0  0  0  0  0  0  0  0  0  0  0  0
  116.4539  147.8641  148.3616 C   0  0  0  0  0  0  0  0  0  0  0  0
  116.8543  148.0482  146.9685 C   0  0  0  0  0  0  0  0  0  0  0  0
  116.2939  148.9518  146.2947 O   0  0  0  0  0  0  0  0  0  0  0  0
  117.8315  147.2738  146.3309 N   0  0  0  0  0  0  0  0  0  0  0  0
  118.4608  147.6679  145.0983 C   0  0  0  0  0  0  0  0  0  0  0  0
  119.6370  147.2862  144.6281 N   0  0  0  0  0  0  0  0  0  0  0  0
  120.0609  147.7529  143.4968 C   0  0  0  0  0  0  0  0  0  0  0  0
  121.3610  147.3614  142.9054 C   0  0  0  0  0  0  0  0  0  0  0  0
  121.4250  147.1163  141.5541 C   0  0  0  0  0  0  0  0  0  0  0  0
  122.5828  146.7530  140.9175 C   0  0  0  0  0  0  0  0  0  0  0  0
  123.7631  146.6200  141.6577 C   0  0  0  0  0  0  0  0  0  0  0  0
  124.8719  146.2571  140.9535 O   0  0  0  0  0  0  0  0  0  0  0  0
  125.7098  145.1554  141.1823 C   0  0  0  0  0  0  0  0  0  0  0  0
  127.0610  145.3064  140.5674 C   0  0  0  0  0  0  0  0  0  0  0  0
  123.6938  146.8652  143.0023 C   0  0  0  0  0  0  0  0  0  0  0  0
  122.5144  147.2339  143.6449 C   0  0  0  0  0  0  0  0  0  0  0  0
  119.2479  148.6392  142.8344 C   0  0  0  0  0  0  0  0  0  0  0  0
  119.4893  149.3407  141.5204 C   0  0  0  0  0  0  0  0  0  0  0  0
  117.9118  148.7414  143.8937 S   0  0  0  0  0  0  0  0  0  0  0  0
  115.1811  147.4499  148.6980 C   0  0  0  0  0  0  0  0  0  0  0  0
  1  2  1  0
  2  3  3  0
  3  4  1  0
  4  5  1  0
  5  6  2  0
  5  7  2  0
  5  8  1  0
  8  9  2  0
  9 10  1  0
 10 11  2  0
 11 12  1  0
 12 13  1  0
 13 14  2  0
 13 15  1  0
 15 16  1  0
 16 17  2  0
 17 18  1  0
 18 19  1  0
 19 20  2  0
 20 21  1  0
 21 22  2  0
 22 23  1  0
 23 24  1  0
 24 25  1  0
 22 26  1  0
 26 27  2  0
 18 28  2  0
 28 29  1  0
 28 30  1  0
 12 31  2  0
 31  8  1  0
 30 16  1  0
 27 19  1  0
M  END
$$$$
