
     RDKit          3D

 19 20  0  0  0  0  0  0  0  0999 V2000
    3.5468   25.9931   -6.1703 C   0  0  0  0  0  0  0  0  0  0  0  0
    3.1567   27.4107   -6.1608 C   0  0  0  0  0  0  0  0  0  0  0  0
    2.0636   27.8140   -6.8959 N   0  0  0  0  0  0  0  0  0  0  0  0
    1.6772   29.1021   -6.9036 C   0  0  0  0  0  0  0  0  0  0  0  0
    0.5899   29.5324   -7.6275 C   0  0  0  0  0  0  0  0  0  0  0  0
    0.1998   30.8508   -7.6303 C   0  0  0  0  0  0  0  0  0  0  0  0
    0.8874   31.8103   -6.9006 C   0  0  0  0  0  0  0  0  0  0  0  0
    1.9757   31.3689   -6.1782 C   0  0  0  0  0  0  0  0  0  0  0  0
    2.3823   30.0522   -6.1628 C   0  0  0  0  0  0  0  0  0  0  0  0
    3.4734   29.6415   -5.4309 C   0  0  0  0  0  0  0  0  0  0  0  0
    4.0851   30.5218   -4.7753 O   0  0  0  0  0  0  0  0  0  0  0  0
    3.8755   28.2989   -5.4237 C   0  0  0  0  0  0  0  0  0  0  0  0
    4.9672   27.9849   -4.6714 O   0  0  0  0  0  0  0  0  0  0  0  0
    5.9388   28.9156   -4.2393 C   0  0  0  0  0  0  0  0  0  0  0  0
    6.3305   28.6159   -2.8241 C   0  0  0  0  0  0  0  0  0  0  0  0
    5.2433   29.1483   -1.5421 S   0  0  0  0  0  0  0  0  0  0  0  0
    5.1323   30.9195   -1.2811 C   0  0  0  0  0  0  0  0  0  0  0  0
    6.4762   31.5098   -0.8641 C   0  0  0  0  0  0  0  0  0  0  0  0
    4.0449   31.3251   -0.3311 C   0  0  0  0  0  0  0  0  0  0  0  0
  1  2  1  0
  2  3  1  0
  3  4  1  0
  4  5  2  0
  5  6  1  0
  6  7  2  0
  7  8  1  0
  8  9  2  0
  9 10  1  0
 10 11  2  0
 10 12  1  0
 12 13  1  0
 13 14  1  0
 14 15  1  0
 15 16  1  0
 16 17  1  0
 17 18  1  0
 17 19  1  0
 12  2  2  0
  9  4  1  0
M  END
$$$$
