
     RDKit          3D

 21 23  0  0  0  0  0  0  0  0999 V2000
   -8.5339   -7.7678  -59.3914 C   0  0  0  0  0  0  0  0  0  0  0  0
   -7.3622   -7.2208  -59.0858 C   0  0  0  0  0  0  0  0  0  0  0  0
   -7.5088   -6.8467  -57.6801 O   0  0  0  0  0  0  0  0  0  0  0  0
   -6.9134   -5.8050  -56.8741 C   0  0  0  0  0  0  0  0  0  0  0  0
   -5.5803   -5.4524  -57.5469 C   0  0  0  0  0  0  0  0  0  0  0  0
   -4.7273   -6.3174  -57.2183 N   0  0  0  0  0  0  0  0  0  0  0  0
   -3.4095   -6.4958  -57.5230 C   0  0  0  0  0  0  0  0  0  0  0  0
   -3.0540   -5.9966  -58.8583 N   0  0  0  0  0  0  0  0  0  0  0  0
   -2.8943   -6.7373  -60.0659 C   0  0  0  0  0  0  0  0  0  0  0  0
   -1.6355   -6.5036  -60.7037 C   0  0  0  0  0  0  0  0  0  0  0  0
   -1.2581   -7.1475  -61.8465 C   0  0  0  0  0  0  0  0  0  0  0  0
    0.2877   -6.8402  -62.6098 Cl  0  0  0  0  0  0  0  0  0  0  0  0
   -2.1186   -8.0512  -62.4017 C   0  0  0  0  0  0  0  0  0  0  0  0
   -1.6682   -8.9042  -63.8729 Cl  0  0  0  0  0  0  0  0  0  0  0  0
   -3.3252   -8.2752  -61.7942 C   0  0  0  0  0  0  0  0  0  0  0  0
   -3.7636   -7.6340  -60.6144 C   0  0  0  0  0  0  0  0  0  0  0  0
   -5.1154   -7.9799  -60.1813 N   0  0  0  0  0  0  0  0  0  0  0  0
   -6.1877   -7.0364  -59.9792 C   0  0  0  0  0  0  0  0  0  0  0  0
   -6.0424   -5.7820  -60.5926 C   0  0  0  0  0  0  0  0  0  0  0  0
   -5.4898   -4.5635  -59.8876 C   0  0  0  0  0  0  0  0  0  0  0  0
   -5.2696   -4.4043  -58.5244 C   0  0  0  0  0  0  0  0  0  0  0  0
  1  2  2  0
  2  3  1  0
  3  4  1  0
  4  5  1  0
  5  6  2  0
  6  7  1  0
  7  8  1  0
  8  9  1  0
  9 10  2  0
 10 11  1  0
 11 12  1  0
 11 13  2  0
 13 14  1  0
 13 15  1  0
 15 16  2  0
 16 17  1  0
 17 18  1  0
 18 19  2  0
 19 20  1  0
 20 21  2  0
 18  2  1  0
 21  5  1  0
 16  9  1  0
M  END
$$$$
