
     RDKit          3D

 19 20  0  0  0  0  0  0  0  0999 V2000
   15.5561    2.0438    2.8182 C   0  0  0  0  0  0  0  0  0  0  0  0
   15.6321    2.9780    3.8288 O   0  0  0  0  0  0  0  0  0  0  0  0
   16.9488    3.3094    4.1475 C   0  0  0  0  0  0  0  0  0  0  0  0
   17.1164    4.7276    4.3185 N   0  0  0  0  0  0  0  0  0  0  0  0
   16.1605    5.5176    5.0012 C   0  0  0  0  0  0  0  0  0  0  0  0
   16.1791    5.2267    6.3284 N   0  0  0  0  0  0  0  0  0  0  0  0
   15.4458    5.8834    7.3232 C   0  0  0  0  0  0  0  0  0  0  0  0
   14.1543    6.2719    7.3743 N   0  0  0  0  0  0  0  0  0  0  0  0
   14.0289    7.6772    6.8725 C   0  0  0  0  0  0  0  0  0  0  0  0
   14.0268    8.0898    5.6362 C   0  0  0  0  0  0  0  0  0  0  0  0
   14.6135    7.4907    4.3902 C   0  0  0  0  0  0  0  0  0  0  0  0
   15.3984    6.4331    4.1568 C   0  0  0  0  0  0  0  0  0  0  0  0
   14.0040    8.9544    7.5176 C   0  0  0  0  0  0  0  0  0  0  0  0
   15.0454    9.1316    8.5759 C   0  0  0  0  0  0  0  0  0  0  0  0
   15.9631    8.4783    9.2538 C   0  0  0  0  0  0  0  0  0  0  0  0
   16.4751    9.2343   10.7422 Cl  0  0  0  0  0  0  0  0  0  0  0  0
   16.7008    7.2237    9.0627 C   0  0  0  0  0  0  0  0  0  0  0  0
   18.0429    7.0002   10.0876 Cl  0  0  0  0  0  0  0  0  0  0  0  0
   16.5367    6.1791    8.2002 C   0  0  0  0  0  0  0  0  0  0  0  0
  1  2  1  0
  2  3  1  0
  3  4  1  0
  4  5  1  0
  5  6  2  0
  6  7  1  0
  7  8  2  0
  8  9  1  0
  9 10  2  0
 10 11  1  0
 11 12  2  0
  9 13  1  0
 13 14  1  0
 14 15  2  0
 15 16  1  0
 15 17  1  0
 17 18  1  0
 17 19  2  0
 12  5  1  0
 19  7  1  0
M  END
$$$$
