
     RDKit          3D

 39 41  0  0  0  0  0  0  0  0999 V2000
  138.5415  145.4186  147.7325 N   0  0  0  0  0  0  0  0  0  0  0  0
  137.9573  146.6678  147.3961 C   0  0  0  0  0  0  0  0  0  0  0  0
  138.8419  147.7387  147.3274 C   0  0  0  0  0  0  0  0  0  0  0  0
  138.3615  149.0147  147.3436 C   0  0  0  0  0  0  0  0  0  0  0  0
  137.0049  149.2273  147.4319 C   0  0  0  0  0  0  0  0  0  0  0  0
  136.0723  148.1711  147.5075 C   0  0  0  0  0  0  0  0  0  0  0  0
  136.6015  146.8667  147.4671 C   0  0  0  0  0  0  0  0  0  0  0  0
  135.7141  145.6978  147.1211 C   0  0  0  0  0  0  0  0  0  0  0  0
  134.5123  146.0508  146.9219 C   0  0  0  0  0  0  0  0  0  0  0  0
  133.4025  145.5920  146.6654 N   0  0  0  0  0  0  0  0  0  0  0  0
  132.2362  146.3653  146.4252 C   0  0  0  0  0  0  0  0  0  0  0  0
  131.1096  146.3586  147.3167 N   0  0  0  0  0  0  0  0  0  0  0  0
  130.7050  146.8250  148.5896 C   0  0  0  0  0  0  0  0  0  0  0  0
  129.9730  148.1244  148.3999 C   0  0  0  0  0  0  0  0  0  0  0  0
  128.6199  147.9536  148.1297 C   0  0  0  0  0  0  0  0  0  0  0  0
  127.7830  147.0281  147.9455 C   0  0  0  0  0  0  0  0  0  0  0  0
  126.3248  146.5358  148.5652 Cl  0  0  0  0  0  0  0  0  0  0  0  0
  130.9091  146.4919  149.9713 C   0  0  0  0  0  0  0  0  0  0  0  0
  131.5273  147.6431  150.7112 C   0  0  0  0  0  0  0  0  0  0  0  0
  132.9250  147.7626  151.0743 C   0  0  0  0  0  0  0  0  0  0  0  0
  133.7445  148.6620  150.2091 N   0  0  0  0  0  0  0  0  0  0  0  0
  134.0418  147.8896  149.0146 C   0  0  0  0  0  0  0  0  0  0  0  0
  134.7286  148.5149  147.9086 N   0  0  0  0  0  0  0  0  0  0  0  0
  131.4057  145.1405  150.4042 C   0  0  0  0  0  0  0  0  0  0  0  0
  132.4426  144.6156  149.5902 C   0  0  0  0  0  0  0  0  0  0  0  0
  133.3288  143.5626  150.0199 O   0  0  0  0  0  0  0  0  0  0  0  0
  134.2536  143.6878  148.9989 C   0  0  0  0  0  0  0  0  0  0  0  0
  135.3480  142.9714  148.7152 O   0  0  0  0  0  0  0  0  0  0  0  0
  136.1211  143.2638  147.6157 C   0  0  0  0  0  0  0  0  0  0  0  0
  136.3185  144.3815  146.9141 C   0  0  0  0  0  0  0  0  0  0  0  0
  137.2802  144.3353  145.7616 C   0  0  0  0  0  0  0  0  0  0  0  0
  136.7088  144.5500  144.4107 C   0  0  0  0  0  0  0  0  0  0  0  0
  135.7416  143.7676  143.9658 N   0  0  0  0  0  0  0  0  0  0  0  0
  136.2243  142.5955  143.2314 C   0  0  0  0  0  0  0  0  0  0  0  0
  135.4215  141.5377  143.1207 C   0  0  0  0  0  0  0  0  0  0  0  0
  135.9073  140.4436  142.2957 C   0  0  0  0  0  0  0  0  0  0  0  0
  136.3086  139.4906  141.5920 C   0  0  0  0  0  0  0  0  0  0  0  0
  136.7918  138.3504  140.7197 O   0  0  0  0  0  0  0  0  0  0  0  0
  137.4084  138.8210  139.1946 Cl  0  0  0  0  0  0  0  0  0  0  0  0
  1  2  1  0
  2  3  2  0
  3  4  1  0
  4  5  2  0
  5  6  1  0
  6  7  2  0
  7  8  1  0
  8  9  2  0
  9 10  2  0
 10 11  1  0
 11 12  1  0
 12 13  1  0
 13 14  2  3
 14 15  1  0
 15 16  2  3
 16 17  1  0
 13 18  1  0
 18 19  1  0
 19 20  1  0
 20 21  1  0
 21 22  1  0
 22 23  1  0
 18 24  1  0
 24 25  1  0
 25 26  1  0
 26 27  1  0
 27 28  1  0
 28 29  1  0
 29 30  2  0
 30 31  1  0
 31 32  1  0
 32 33  2  3
 33 34  1  0
 34 35  2  3
 35 36  1  0
 36 37  3  0
 37 38  1  0
 38 39  1  0
  7  2  1  0
 30  8  1  0
 23  6  1  0
M  END
$$$$
