
     RDKit          3D

 19 20  0  0  0  0  0  0  0  0999 V2000
    3.1299   26.0549   -7.1147 C   0  0  0  0  0  0  0  0  0  0  0  0
    2.6035   27.4713   -7.0913 C   0  0  0  0  0  0  0  0  0  0  0  0
    3.1232   28.3858   -6.0221 C   0  0  0  0  0  0  0  0  0  0  0  0
    3.3456   27.9519   -4.8624 O   0  0  0  0  0  0  0  0  0  0  0  0
    3.3740   29.7200   -6.2682 O   0  0  0  0  0  0  0  0  0  0  0  0
    4.1318   30.5954   -5.5038 C   0  0  0  0  0  0  0  0  0  0  0  0
    3.6172   30.8586   -4.1441 C   0  0  0  0  0  0  0  0  0  0  0  0
    4.1746   30.3920   -2.9807 C   0  0  0  0  0  0  0  0  0  0  0  0
    3.6218   30.6990   -1.7311 C   0  0  0  0  0  0  0  0  0  0  0  0
    2.4929   31.4866   -1.6417 C   0  0  0  0  0  0  0  0  0  0  0  0
    1.9429   31.7933   -0.4285 F   0  0  0  0  0  0  0  0  0  0  0  0
    1.9223   31.9628   -2.8001 C   0  0  0  0  0  0  0  0  0  0  0  0
    0.8093   32.7467   -2.7860 F   0  0  0  0  0  0  0  0  0  0  0  0
    2.4800   31.6507   -4.0378 C   0  0  0  0  0  0  0  0  0  0  0  0
    1.9064   32.1304   -5.1756 F   0  0  0  0  0  0  0  0  0  0  0  0
    2.2728   28.1222   -8.3896 C   0  0  0  0  0  0  0  0  0  0  0  0
    1.1841   27.5858   -7.5192 C   0  0  0  0  0  0  0  0  0  0  0  0
    0.1871   28.6779   -6.5370 Cl  0  0  0  0  0  0  0  0  0  0  0  0
    0.3081   26.1072   -8.0224 Cl  0  0  0  0  0  0  0  0  0  0  0  0
  1  2  1  0
  2  3  1  0
  3  4  2  0
  3  5  1  0
  5  6  1  0
  6  7  1  0
  7  8  2  0
  8  9  1  0
  9 10  2  0
 10 11  1  0
 10 12  1  0
 12 13  1  0
 12 14  2  0
 14 15  1  0
  2 16  1  0
 16 17  1  0
 17 18  1  0
 17 19  1  0
 17  2  1  0
 14  7  1  0
M  END
$$$$
