
     RDKit          3D

 33 35  0  0  0  0  0  0  0  0999 V2000
   33.7651   30.8934    3.4929 P   0  0  0  0  0  1  0  0  0  0  0  0
   34.3482   31.6889    4.8475 O   0  0  0  0  0  0  0  0  0  0  0  0
   35.6441   31.2356    5.1649 C   0  0  0  0  0  0  0  0  0  0  0  0
   35.5494   30.1452    6.1185 C   0  0  0  0  0  0  0  0  0  0  0  0
   36.5495   29.5740    6.7068 C   0  0  0  0  0  0  0  0  0  0  0  0
   36.4434   28.5131    7.7233 C   0  0  0  0  0  0  0  0  0  0  0  0
   37.7981   27.8665    8.0318 C   0  0  0  0  0  0  0  0  0  0  0  0
   37.5943   26.8110    8.9811 N   0  0  0  0  0  0  0  0  0  0  0  0
   38.4702   26.9044   10.0882 C   0  0  0  0  0  0  0  0  0  0  0  0
   37.8964   26.1563   11.2807 C   0  0  0  0  0  0  0  0  0  0  0  0
   38.8268   26.0112   12.2704 O   0  0  0  0  0  0  0  0  0  0  0  0
   38.3916   26.0961   13.5257 C   0  0  0  0  0  0  0  0  0  0  0  0
   38.7412   25.0248   14.5229 C   0  0  0  0  0  0  0  0  0  0  0  0
   37.7703   24.2610   15.0524 N   0  0  0  0  0  0  0  0  0  0  0  0
   36.7573   23.4641   15.6048 C   0  0  0  0  0  0  0  0  0  0  0  0
   35.7697   23.9570   16.4120 N   0  0  0  0  0  0  0  0  0  0  0  0
   34.7006   23.2645   16.8283 C   0  0  0  0  0  0  0  0  0  0  0  0
   33.7227   23.9475   17.6463 N   0  0  0  0  0  0  0  0  0  0  0  0
   34.0128   25.3371   17.8636 C   0  0  0  0  0  0  0  0  0  0  0  0
   35.1392   25.8584   17.3077 C   0  0  0  0  0  0  0  0  0  0  0  0
   35.4179   27.2033   17.4937 C   0  0  0  0  0  0  0  0  0  0  0  0
   34.6149   28.0594   18.2169 C   0  0  0  0  0  0  0  0  0  0  0  0
   35.0303   29.7456   18.4022 Cl  0  0  0  0  0  0  0  0  0  0  0  0
   33.4821   27.5005   18.7679 C   0  0  0  0  0  0  0  0  0  0  0  0
   32.4246   28.5327   19.7015 Cl  0  0  0  0  0  0  0  0  0  0  0  0
   33.1808   26.1547   18.5953 C   0  0  0  0  0  0  0  0  0  0  0  0
   34.5766   21.9967   16.4390 N   0  0  0  0  0  0  0  0  0  0  0  0
   35.4994   21.4230   15.6484 C   0  0  0  0  0  0  0  0  0  0  0  0
   35.3503   20.0801   15.2578 C   0  0  0  0  0  0  0  0  0  0  0  0
   36.3035   19.4929   14.4523 C   0  0  0  0  0  0  0  0  0  0  0  0
   37.4020   20.2068   14.0245 C   0  0  0  0  0  0  0  0  0  0  0  0
   37.5149   21.5382   14.4334 C   0  0  0  0  0  0  0  0  0  0  0  0
   36.5724   22.1270   15.2314 C   0  0  0  0  0  0  0  0  0  0  0  0
  1  2  1  0
  2  3  1  0
  3  4  1  0
  4  5  2  3
  5  6  1  0
  6  7  1  0
  7  8  1  0
  8  9  1  0
  9 10  1  0
 10 11  1  0
 11 12  1  0
 12 13  1  0
 13 14  1  0
 14 15  1  0
 15 16  2  0
 16 17  1  0
 17 18  1  0
 18 19  1  0
 19 20  2  0
 20 21  1  0
 21 22  2  0
 22 23  1  0
 22 24  1  0
 24 25  1  0
 24 26  2  0
 17 27  2  0
 27 28  1  0
 28 29  2  0
 29 30  1  0
 30 31  2  0
 31 32  1  0
 32 33  2  0
 33 15  1  0
 26 19  1  0
 33 28  1  0
M  CHG  1   1   1
M  RAD  1   1   2
M  END
$$$$
