
     RDKit          3D

 20 21  0  0  0  0  0  0  0  0999 V2000
  158.8760  146.3494  175.0294 C   0  0  0  0  0  0  0  0  0  0  0  0
  158.8823  147.6083  175.1283 C   0  0  0  0  0  0  0  0  0  0  0  0
  157.8236  148.4935  174.6909 N   0  0  0  0  0  0  0  0  0  0  0  0
  157.3177  149.3933  175.4748 C   0  0  0  0  0  0  0  0  0  0  0  0
  157.7272  149.1371  176.8456 N   0  0  0  0  0  0  0  0  0  0  0  0
  158.4911  148.2337  177.2802 C   0  0  0  0  0  0  0  0  0  0  0  0
  158.4459  147.5139  178.3213 N   0  0  0  0  0  0  0  0  0  0  0  0
  157.7537  147.6161  179.6152 C   0  0  0  0  0  0  0  0  0  0  0  0
  157.1371  149.0166  179.5803 C   0  0  0  0  0  0  0  0  0  0  0  0
  156.4504  149.2763  180.7523 O   0  0  0  0  0  0  0  0  0  0  0  0
  159.8399  148.2043  176.1956 C   0  0  0  0  0  0  0  0  0  0  0  0
  159.8378  149.5175  176.0911 C   0  0  0  0  0  0  0  0  0  0  0  0
  159.8506  150.6779  175.9854 C   0  0  0  0  0  0  0  0  0  0  0  0
  159.8891  152.5053  175.8053 P   0  0  0  0  0  3  0  0  0  0  0  0
  161.6505  153.2852  176.6290 Cl  0  0  0  0  0  0  0  0  0  0  0  0
  160.0730  152.4131  173.8652 C   0  0  0  0  0  0  0  0  0  0  0  0
  158.8322  152.4911  173.2267 C   0  0  0  0  0  0  0  0  0  0  0  0
  157.6865  152.5947  174.0286 C   0  0  0  0  0  0  0  0  0  0  0  0
  156.8005  151.8682  174.7249 C   0  0  0  0  0  0  0  0  0  0  0  0
  156.5598  150.5020  175.0123 N   0  0  0  0  0  0  0  0  0  0  0  0
  1  2  2  0
  2  3  1  0
  3  4  2  0
  4  5  1  0
  5  6  2  0
  6  7  1  0
  7  8  1  0
  8  9  1  0
  9 10  1  0
  6 11  1  0
 11 12  1  0
 12 13  3  0
 13 14  1  0
 14 15  1  0
 14 16  1  0
 16 17  2  0
 17 18  1  0
 18 19  2  0
 19 20  1  0
 11  2  1  0
 20  4  1  0
M  CHG  1  14  -1
M  RAD  1  14   2
M  END
$$$$
