
     RDKit          3D

 14 15  0  0  0  0  0  0  0  0999 V2000
  153.0916  148.5320  175.0984 C   0  0  0  0  0  0  0  0  0  0  0  0
  154.2210  148.8898  174.3265 O   0  0  0  0  0  0  0  0  0  0  0  0
  155.4017  149.3391  174.8483 C   0  0  0  0  0  0  0  0  0  0  0  0
  155.5233  149.4695  176.0901 O   0  0  0  0  0  0  0  0  0  0  0  0
  156.5485  149.6808  174.0174 C   0  0  0  0  0  0  0  0  0  0  0  0
  156.5191  149.5193  172.6373 C   0  0  0  0  0  0  0  0  0  0  0  0
  157.5829  149.8316  171.8239 C   0  0  0  0  0  0  0  0  0  0  0  0
  158.7404  150.3295  172.3886 C   0  0  0  0  0  0  0  0  0  0  0  0
  158.8132  150.5064  173.7601 C   0  0  0  0  0  0  0  0  0  0  0  0
  157.7171  150.1796  174.5521 C   0  0  0  0  0  0  0  0  0  0  0  0
  157.7623  150.3476  175.9369 O   0  0  0  0  0  0  0  0  0  0  0  0
  159.6628  150.5644  171.3544 O   0  0  0  0  0  0  0  0  0  0  0  0
  158.9425  150.5188  170.1212 C   0  0  0  0  0  0  0  0  0  0  0  0
  157.7918  149.7587  170.4327 O   0  0  0  0  0  0  0  0  0  0  0  0
  1  2  1  0
  2  3  1  0
  3  4  2  0
  3  5  1  0
  5  6  2  0
  6  7  1  0
  7  8  2  0
  8  9  1  0
  9 10  2  0
 10 11  1  0
  8 12  1  0
 12 13  1  0
 13 14  1  0
 10  5  1  0
 14  7  1  0
M  END
$$$$
