
     RDKit          3D

 20 22  0  0  0  0  0  0  0  0999 V2000
   37.3088   28.0121    9.8505 N   0  0  0  0  0  0  0  0  0  0  0  0
   36.0142   28.3302    9.9311 O   0  0  0  0  0  0  0  0  0  0  0  0
   35.3894   28.1303   11.4879 P   0  0  0  0  0  2  0  0  0  0  0  0
   35.2127   26.4642   11.9282 N   0  0  0  0  0  0  0  0  0  0  0  0
   36.3097   25.6385   11.5090 C   0  0  0  0  0  0  0  0  0  0  0  0
   37.1163   25.3207   12.7168 C   0  0  0  0  0  0  0  0  0  0  0  0
   37.4827   24.1297   13.0998 C   0  0  0  0  0  0  0  0  0  0  0  0
   38.2857   23.6553   14.2773 C   0  0  0  0  0  0  0  0  0  0  0  0
   39.3451   24.6209   14.6629 C   0  0  0  0  0  0  0  0  0  0  0  0
   40.9765   24.0347   14.9287 Cl  0  0  0  0  0  0  0  0  0  0  0  0
   39.2434   25.9532   14.8512 C   0  0  0  0  0  0  0  0  0  0  0  0
   38.0059   26.7739   14.7090 C   0  0  0  0  0  0  0  0  0  0  0  0
   37.4304   26.5489   13.4003 N   0  0  0  0  0  0  0  0  0  0  0  0
   37.0954   23.0053   12.3176 N   0  0  0  0  0  0  0  0  0  0  0  0
   36.3221   23.2177   11.1449 C   0  0  0  0  0  0  0  0  0  0  0  0
   35.9371   22.1348   10.3729 C   0  0  0  0  0  0  0  0  0  0  0  0
   35.1837   22.3211    9.2272 C   0  0  0  0  0  0  0  0  0  0  0  0
   34.7874   23.5744    8.8074 C   0  0  0  0  0  0  0  0  0  0  0  0
   35.1758   24.6511    9.5839 C   0  0  0  0  0  0  0  0  0  0  0  0
   35.9267   24.4703   10.7265 C   0  0  0  0  0  0  0  0  0  0  0  0
  1  2  1  0
  2  3  1  0
  3  4  1  0
  4  5  1  0
  5  6  1  0
  6  7  2  0
  7  8  1  0
  8  9  1  0
  9 10  1  0
  9 11  2  0
 11 12  1  0
 12 13  1  0
  7 14  1  0
 14 15  1  0
 15 16  2  0
 16 17  1  0
 17 18  2  0
 18 19  1  0
 19 20  2  0
 20  5  1  0
 13  6  1  0
 20 15  1  0
M  CHG  1   3  -1
M  END
$$$$
