
     RDKit          3D

 19 19  0  0  0  0  0  0  0  0999 V2000
    4.5722   26.6193   -6.7982 C   0  0  0  0  0  0  0  0  0  0  0  0
    3.4015   26.2567   -5.8989 C   0  0  0  0  0  0  0  0  0  0  0  0
    3.6666   26.6319   -4.4683 C   0  0  0  0  0  0  0  0  0  0  0  0
    2.1577   26.9894   -6.3537 C   0  0  2  0  0  0  0  0  0  0  0  0
    1.7873   26.4957   -7.6488 N   0  0  0  0  0  0  0  0  0  0  0  0
    0.4851   26.6485   -8.2027 C   0  0  0  0  0  0  0  0  0  0  0  0
    0.0994   26.0037   -9.4125 N   0  0  0  0  0  0  0  0  0  0  0  0
   -0.3130   27.3969   -7.5499 O   0  0  0  0  0  0  0  0  0  0  0  0
    2.4858   28.4356   -6.3721 C   0  0  0  0  0  0  0  0  0  0  0  0
    2.9907   28.9799   -7.3910 O   0  0  0  0  0  0  0  0  0  0  0  0
    2.2478   29.2726   -5.2480 N   0  0  0  0  0  0  0  0  0  0  0  0
    2.5763   30.6690   -5.2609 C   0  0  0  0  0  0  0  0  0  0  0  0
    2.3923   31.3960   -4.0875 C   0  0  0  0  0  0  0  0  0  0  0  0
    2.6827   32.7347   -4.0182 C   0  0  0  0  0  0  0  0  0  0  0  0
    3.1687   33.3593   -5.1509 C   0  0  0  0  0  0  0  0  0  0  0  0
    3.5530   35.0820   -5.0969 Cl  0  0  0  0  0  0  0  0  0  0  0  0
    3.3572   32.6636   -6.3153 C   0  0  0  0  0  0  0  0  0  0  0  0
    3.9695   33.4342   -7.7553 Cl  0  0  0  0  0  0  0  0  0  0  0  0
    3.0571   31.3181   -6.3576 C   0  0  0  0  0  0  0  0  0  0  0  0
  1  2  1  0
  2  3  1  0
  2  4  1  0
  4  5  1  6
  5  6  1  0
  6  7  1  0
  6  8  2  0
  4  9  1  0
  9 10  2  0
  9 11  1  0
 11 12  1  0
 12 13  2  0
 13 14  1  0
 14 15  2  0
 15 16  1  0
 15 17  1  0
 17 18  1  0
 17 19  2  0
 19 12  1  0
M  END
$$$$
