
     RDKit          3D

 15 15  0  0  0  0  0  0  0  0999 V2000
    2.0572   24.5497   -7.8562 C   0  0  0  0  0  0  0  0  0  0  0  0
    0.9336   25.5685   -8.0210 C   0  0  0  0  0  0  0  0  0  0  0  0
    0.4307   25.4775   -9.4142 C   0  0  0  0  0  0  0  0  0  0  0  0
    1.3755   26.9184   -7.5791 C   0  0  0  0  0  0  0  0  0  0  0  0
    0.4057   27.9519   -7.6837 N   0  0  0  0  0  0  0  0  0  0  0  0
    0.7659   29.1591   -7.4049 C   0  0  0  0  0  0  0  0  0  0  0  0
   -0.0241   30.3164   -7.7388 N   0  0  0  0  0  0  0  0  0  0  0  0
    1.9961   29.4132   -6.7256 N   0  0  0  0  0  0  0  0  0  0  0  0
    2.2146   30.5971   -6.0195 C   0  0  0  0  0  0  0  0  0  0  0  0
    2.4516   31.7580   -6.7549 C   0  0  0  0  0  0  0  0  0  0  0  0
    2.6839   32.9621   -6.1673 C   0  0  0  0  0  0  0  0  0  0  0  0
    2.6849   33.0362   -4.7947 C   0  0  0  0  0  0  0  0  0  0  0  0
    2.4534   31.9029   -4.0498 C   0  0  0  0  0  0  0  0  0  0  0  0
    2.4529   31.9711   -2.6500 O   0  0  0  0  0  0  0  0  0  0  0  0
    2.2150   30.6671   -4.6521 C   0  0  0  0  0  0  0  0  0  0  0  0
  1  2  1  0
  2  3  1  0
  2  4  1  0
  4  5  1  0
  5  6  2  3
  6  7  1  0
  6  8  1  0
  8  9  1  0
  9 10  2  0
 10 11  1  0
 11 12  2  0
 12 13  1  0
 13 14  1  0
 13 15  2  0
 15  9  1  0
M  END
$$$$
