
     RDKit          3D

 24 26  0  0  0  0  0  0  0  0999 V2000
    1.2126   -4.1634  -54.3413 O   0  0  0  0  0  0  0  0  0  0  0  0
    0.9450   -4.6766  -55.6239 C   0  0  0  0  0  0  0  0  0  0  0  0
    1.1579   -3.9306  -56.7559 C   0  0  0  0  0  0  0  0  0  0  0  0
    0.8911   -4.4417  -58.0332 C   0  0  0  0  0  0  0  0  0  0  0  0
    1.1069   -3.6481  -59.0977 F   0  0  0  0  0  0  0  0  0  0  0  0
    0.4065   -5.7099  -58.2063 C   0  0  0  0  0  0  0  0  0  0  0  0
    0.1107   -6.3433  -59.5110 C   0  0  0  0  0  0  0  0  0  0  0  0
   -1.0702   -7.1074  -59.5999 N   0  0  0  0  0  0  0  0  0  0  0  0
   -2.1231   -6.5461  -58.7913 C   0  0  0  0  0  0  0  0  0  0  0  0
   -3.2204   -6.0197  -59.6810 C   0  0  0  0  0  0  0  0  0  0  0  0
   -3.9029   -7.1341  -60.2757 N   0  0  0  0  0  0  0  0  0  0  0  0
   -4.8780   -6.7181  -61.2672 C   0  0  0  0  0  0  0  0  0  0  0  0
   -6.1678   -6.4994  -60.5869 C   0  0  0  0  0  0  0  0  0  0  0  0
   -6.6164   -5.2095  -60.3166 C   0  0  0  0  0  0  0  0  0  0  0  0
   -7.8069   -4.9777  -59.6879 C   0  0  0  0  0  0  0  0  0  0  0  0
   -8.5988   -6.0402  -59.3034 C   0  0  0  0  0  0  0  0  0  0  0  0
   -8.1641   -7.2997  -59.5654 C   0  0  0  0  0  0  0  0  0  0  0  0
   -8.9393   -8.3431  -59.1889 F   0  0  0  0  0  0  0  0  0  0  0  0
   -6.9648   -7.5430  -60.1990 C   0  0  0  0  0  0  0  0  0  0  0  0
   -2.9433   -8.0610  -60.8380 C   0  0  0  0  0  0  0  0  0  0  0  0
   -1.5503   -7.4349  -60.8905 C   0  0  0  0  0  0  0  0  0  0  0  0
    0.1950   -6.4577  -57.0363 C   0  0  0  0  0  0  0  0  0  0  0  0
   -0.2874   -7.7275  -57.1555 F   0  0  0  0  0  0  0  0  0  0  0  0
    0.4567   -5.9553  -55.7812 C   0  0  0  0  0  0  0  0  0  0  0  0
  1  2  1  0
  2  3  2  0
  3  4  1  0
  4  5  1  0
  4  6  2  0
  6  7  1  0
  7  8  1  0
  8  9  1  0
  9 10  1  0
 10 11  1  0
 11 12  1  0
 12 13  1  0
 13 14  2  0
 14 15  1  0
 15 16  2  0
 16 17  1  0
 17 18  1  0
 17 19  2  0
 11 20  1  0
 20 21  1  0
  6 22  1  0
 22 23  1  0
 22 24  2  0
 24  2  1  0
 21  8  1  0
 19 13  1  0
M  END
$$$$
