
     RDKit          3D

 17 17  0  0  0  0  0  0  0  0999 V2000
   28.3381   54.5795   27.6663 C   0  0  0  0  0  0  0  0  0  0  0  0
   28.4351   53.7596   28.7661 C   0  0  0  0  0  0  0  0  0  0  0  0
   28.5159   53.0504   29.7553 C   0  0  0  0  0  0  0  0  0  0  0  0
   28.3730   51.5764   29.1403 N   0  0  0  0  0  0  0  0  0  0  0  0
   27.1061   51.3277   28.9420 C   0  0  0  0  0  0  0  0  0  0  0  0
   26.4792   51.4195   27.6489 N   0  0  0  0  0  0  0  0  0  0  0  0
   26.3897   50.9455   30.1071 N   0  0  0  0  0  0  0  0  0  0  0  0
   25.3299   49.9574   29.9546 C   0  0  0  0  0  0  0  0  0  0  0  0
   24.6889   49.3954   31.0371 C   0  0  0  0  0  0  0  0  0  0  0  0
   23.7248   48.4266   30.9603 C   0  0  0  0  0  0  0  0  0  0  0  0
   23.3335   47.9412   29.7298 C   0  0  0  0  0  0  0  0  0  0  0  0
   22.0189   46.5318   29.5705 Br  0  0  0  0  0  0  0  0  0  0  0  0
   23.9576   48.4833   28.5925 C   0  0  0  0  0  0  0  0  0  0  0  0
   24.9490   49.4865   28.7245 C   0  0  0  0  0  0  0  0  0  0  0  0
   29.7000   52.8751   30.6964 C   0  0  0  0  0  0  0  0  0  0  0  0
   30.6184   51.7693   30.1853 C   0  0  0  0  0  0  0  0  0  0  0  0
   30.3987   54.1594   30.7848 C   0  0  0  0  0  0  0  0  0  0  0  0
  1  2  3  0
  2  3  1  0
  3  4  1  0
  4  5  2  3
  5  6  1  0
  5  7  1  0
  7  8  1  0
  8  9  2  0
  9 10  1  0
 10 11  2  0
 11 12  1  0
 11 13  1  0
 13 14  2  0
  3 15  1  0
 15 16  1  0
 15 17  1  0
 14  8  1  0
M  END
$$$$
