
     RDKit          3D

 17 17  0  0  0  0  0  0  0  0999 V2000
   48.8830   33.9268   27.5213 C   0  0  0  0  0  0  0  0  0  0  0  0
   48.2172   32.7395   27.3250 C   0  0  0  0  0  0  0  0  0  0  0  0
   47.6430   31.6801   27.1357 C   0  0  0  0  0  0  0  0  0  0  0  0
   47.2996   31.7442   25.5707 N   0  0  0  0  0  0  0  0  0  0  0  0
   46.3876   32.6598   25.3806 C   0  0  0  0  0  0  0  0  0  0  0  0
   46.3439   33.4957   24.2089 N   0  0  0  0  0  0  0  0  0  0  0  0
   45.4268   32.7617   26.4215 N   0  0  0  0  0  0  0  0  0  0  0  0
   44.1974   33.4901   26.1371 C   0  0  0  0  0  0  0  0  0  0  0  0
   43.7565   33.7120   24.8507 C   0  0  0  0  0  0  0  0  0  0  0  0
   42.6407   34.4321   24.5184 C   0  0  0  0  0  0  0  0  0  0  0  0
   41.8685   35.0013   25.5096 C   0  0  0  0  0  0  0  0  0  0  0  0
   40.3169   36.0766   25.0902 Br  0  0  0  0  0  0  0  0  0  0  0  0
   42.2759   34.8032   26.8406 C   0  0  0  0  0  0  0  0  0  0  0  0
   43.4379   34.0477   27.1333 C   0  0  0  0  0  0  0  0  0  0  0  0
   48.1988   30.2688   27.2688 C   0  0  0  0  0  0  0  0  0  0  0  0
   49.1004   29.9448   26.0815 C   0  0  0  0  0  0  0  0  0  0  0  0
   48.9270   30.1895   28.5372 C   0  0  0  0  0  0  0  0  0  0  0  0
  1  2  3  0
  2  3  1  0
  3  4  1  0
  4  5  2  3
  5  6  1  0
  5  7  1  0
  7  8  1  0
  8  9  2  0
  9 10  1  0
 10 11  2  0
 11 12  1  0
 11 13  1  0
 13 14  2  0
  3 15  1  0
 15 16  1  0
 15 17  1  0
 14  8  1  0
M  END
$$$$
