
     RDKit          3D

 15 16  0  0  0  0  0  0  0  0999 V2000
   22.9272   71.9593   14.2615 Cl  0  0  0  0  0  0  0  0  0  0  0  0
   21.4115   71.0959   14.5985 C   0  0  0  0  0  0  0  0  0  0  0  0
   21.5784   70.1080   15.7020 C   0  0  0  0  0  0  0  0  0  0  0  0
   21.6155   68.6660   15.2571 C   0  0  0  0  0  0  0  0  0  0  0  0
   22.0307   67.6989   16.6897 Cl  0  0  0  0  0  0  0  0  0  0  0  0
   22.6456   68.5407   14.1933 C   0  0  0  0  0  0  0  0  0  0  0  0
   23.5145   67.5480   14.0851 C   0  0  0  0  0  0  0  0  0  0  0  0
   23.6807   66.3991   14.9142 C   0  0  0  0  0  0  0  0  0  0  0  0
   22.8845   65.3426   15.0050 C   0  0  0  0  0  0  0  0  0  0  0  0
   22.1883   64.1073   15.2788 C   0  0  0  0  0  0  0  0  0  0  0  0
   21.7740   64.9426   14.2899 C   0  0  0  0  0  0  0  0  0  0  0  0
   21.0642   65.5937   13.1676 C   0  0  0  0  0  0  0  0  0  0  0  0
   19.8587   66.2936   13.5795 N   0  0  0  0  0  0  0  0  0  0  0  0
   20.1076   66.8771   14.7542 O   0  0  0  0  0  0  0  0  0  0  0  0
   20.2980   68.2531   14.6484 C   0  0  0  0  0  0  0  0  0  0  0  0
  1  2  1  0
  2  3  1  0
  3  4  1  0
  4  5  1  0
  4  6  1  0
  6  7  2  0
  7  8  1  0
  8  9  2  0
  9 10  1  0
 10 11  2  0
 11 12  1  0
 12 13  1  0
 13 14  1  0
 14 15  1  0
 15  4  1  0
 11  9  1  0
M  END
$$$$
