
     RDKit          3D

 20 20  0  0  0  0  0  0  0  0999 V2000
    1.8451   24.3205   -5.3971 C   0  0  0  0  0  0  0  0  0  0  0  0
    1.1995   24.7309   -6.4789 O   0  0  0  0  0  0  0  0  0  0  0  0
    1.5959   24.8519   -7.7225 C   0  0  0  0  0  0  0  0  0  0  0  0
    0.7471   25.4129   -8.8122 C   0  0  0  0  0  0  0  0  0  0  0  0
    0.2320   26.7649   -8.5068 C   0  0  0  0  0  0  0  0  0  0  0  0
    1.1708   27.8181   -8.8844 N   0  0  0  0  0  0  0  0  0  0  0  0
    1.0177   29.1696   -8.5007 C   0  0  0  0  0  0  0  0  0  0  0  0
   -0.1296   29.6829   -8.4738 O   0  0  0  0  0  0  0  0  0  0  0  0
    2.2502   29.9325   -8.1402 C   0  0  0  0  0  0  0  0  0  0  0  0
    1.8546   30.8831   -7.0180 C   0  0  0  0  0  0  0  0  0  0  0  0
    2.8626   31.9632   -6.8197 C   0  0  0  0  0  0  0  0  0  0  0  0
    4.0336   31.6262   -6.1877 O   0  0  0  0  0  0  0  0  0  0  0  0
    4.2778   31.3226   -4.9000 C   0  0  0  0  0  0  0  0  0  0  0  0
    5.2729   30.4918   -4.4643 C   0  0  0  0  0  0  0  0  0  0  0  0
    5.4208   30.2622   -3.0980 C   0  0  0  0  0  0  0  0  0  0  0  0
    4.6040   30.8406   -2.1677 C   0  0  0  0  0  0  0  0  0  0  0  0
    4.7359   30.5952   -0.4480 Cl  0  0  0  0  0  0  0  0  0  0  0  0
    3.6122   31.6733   -2.6416 C   0  0  0  0  0  0  0  0  0  0  0  0
    3.4272   31.9276   -3.9556 C   0  0  0  0  0  0  0  0  0  0  0  0
    2.1399   33.0011   -4.4796 Cl  0  0  0  0  0  0  0  0  0  0  0  0
  1  2  1  0
  2  3  1  0
  3  4  1  0
  4  5  1  0
  5  6  1  0
  6  7  1  0
  7  8  2  0
  7  9  1  0
  9 10  1  0
 10 11  1  0
 11 12  1  0
 12 13  1  0
 13 14  2  0
 14 15  1  0
 15 16  2  0
 16 17  1  0
 16 18  1  0
 18 19  2  0
 19 20  1  0
 19 13  1  0
M  END
$$$$
