
     RDKit          3D

 20 20  0  0  0  0  0  0  0  0999 V2000
   -5.7536   -4.9792  -55.8421 C   0  0  0  0  0  0  0  0  0  0  0  0
   -4.4873   -4.6018  -55.9407 O   0  0  0  0  0  0  0  0  0  0  0  0
   -3.3975   -5.2971  -56.1585 C   0  0  0  0  0  0  0  0  0  0  0  0
   -2.0608   -4.6861  -56.4088 C   0  0  0  0  0  0  0  0  0  0  0  0
   -1.1663   -4.7492  -55.2332 C   0  0  0  0  0  0  0  0  0  0  0  0
    0.1037   -4.0649  -55.4610 N   0  0  0  0  0  0  0  0  0  0  0  0
    1.0633   -4.5009  -56.4026 C   0  0  0  0  0  0  0  0  0  0  0  0
    2.1465   -4.9984  -56.0027 O   0  0  0  0  0  0  0  0  0  0  0  0
    0.7346   -4.3451  -57.8512 C   0  0  0  0  0  0  0  0  0  0  0  0
    1.8062   -5.1071  -58.6196 C   0  0  0  0  0  0  0  0  0  0  0  0
    1.5856   -5.0480  -60.0927 C   0  0  0  0  0  0  0  0  0  0  0  0
    0.4190   -5.5838  -60.5788 O   0  0  0  0  0  0  0  0  0  0  0  0
    0.2113   -6.6221  -61.4088 C   0  0  0  0  0  0  0  0  0  0  0  0
    0.5904   -7.9126  -61.1618 C   0  0  0  0  0  0  0  0  0  0  0  0
    0.3117   -8.8983  -62.1063 C   0  0  0  0  0  0  0  0  0  0  0  0
   -0.3322   -8.6240  -63.2799 C   0  0  0  0  0  0  0  0  0  0  0  0
   -0.7098   -9.8087  -64.5001 Cl  0  0  0  0  0  0  0  0  0  0  0  0
   -0.7011   -7.3130  -63.4959 C   0  0  0  0  0  0  0  0  0  0  0  0
   -0.4537   -6.3212  -62.6124 C   0  0  0  0  0  0  0  0  0  0  0  0
   -0.9560   -4.6750  -62.9616 Cl  0  0  0  0  0  0  0  0  0  0  0  0
  1  2  1  0
  2  3  1  0
  3  4  1  0
  4  5  1  0
  5  6  1  0
  6  7  1  0
  7  8  2  0
  7  9  1  0
  9 10  1  0
 10 11  1  0
 11 12  1  0
 12 13  1  0
 13 14  2  0
 14 15  1  0
 15 16  2  0
 16 17  1  0
 16 18  1  0
 18 19  2  0
 19 20  1  0
 19 13  1  0
M  END
$$$$
