
     RDKit          3D

 24 23  0  0  0  0  0  0  0  0999 V2000
   11.0582   73.3674   25.3019 N   0  0  0  0  0  0  0  0  0  0  0  0
   10.2379   72.3021   24.7209 C   0  0  0  0  0  0  0  0  0  0  0  0
    9.2975   72.8671   23.7490 C   0  0  0  0  0  0  0  0  0  0  0  0
    8.4216   72.1822   23.0191 C   0  0  0  0  0  0  0  0  0  0  0  0
    7.4923   72.8063   22.0808 C   0  0  0  0  0  0  0  0  0  0  0  0
    6.6062   71.6300   21.5547 C   0  0  0  0  0  0  0  0  0  0  0  0
    5.8554   71.6529   20.7590 N   0  0  0  0  0  0  0  0  0  0  0  0
    4.8597   71.6232   19.7816 C   0  0  0  0  0  0  0  0  0  0  0  0
    5.4410   70.9314   18.6913 C   0  0  0  0  0  0  0  0  0  0  0  0
    6.0457   70.2525   17.5859 C   0  0  0  0  0  0  0  0  0  0  0  0
    6.6682   69.5856   16.4980 N   0  0  0  0  0  0  0  0  0  0  0  0
    7.8726   69.7878   16.6650 C   0  0  0  0  0  0  0  0  0  0  0  0
    9.2711   69.7090   16.5987 C   0  0  0  0  0  0  0  0  0  0  0  0
    9.9606   70.7873   17.1993 C   0  0  0  0  0  0  0  0  0  0  0  0
   11.5359   70.5681   17.0794 C   0  0  0  0  0  0  0  0  0  0  0  0
   11.7602   71.9845   17.7753 C   0  0  0  0  0  0  0  0  0  0  0  0
   11.9464   73.0378   18.3002 C   0  0  0  0  0  0  0  0  0  0  0  0
   12.1573   74.2094   18.8987 C   0  0  0  0  0  0  0  0  0  0  0  0
   12.7580   74.8092   19.8265 C   0  0  0  0  0  0  0  0  0  0  0  0
   14.2338   74.6259   20.0722 C   0  0  0  0  0  0  0  0  0  0  0  0
   14.8120   76.3068   20.4427 Cl  0  0  0  0  0  0  0  0  0  0  0  0
   12.0745   75.7763   20.7755 C   0  0  0  0  0  0  0  0  0  0  0  0
   10.7866   75.4178   21.1093 O   0  0  0  0  0  0  0  0  0  0  0  0
    9.9618   76.4953   22.1135 Cl  0  0  0  0  0  0  0  0  0  0  0  0
  1  2  1  0
  2  3  1  0
  3  4  2  3
  4  5  1  0
  5  6  1  0
  6  7  2  3
  7  8  1  0
  8  9  1  0
  9 10  3  0
 10 11  1  0
 11 12  2  3
 12 13  1  0
 13 14  2  3
 14 15  1  0
 15 16  1  0
 16 17  3  0
 17 18  1  0
 18 19  2  3
 19 20  1  0
 20 21  1  0
 19 22  1  0
 22 23  1  0
 23 24  1  0
M  END
$$$$
