
     RDKit          3D

 24 23  0  0  0  0  0  0  0  0999 V2000
   24.4687   49.4299   29.9695 N   0  0  0  0  0  0  0  0  0  0  0  0
   25.6102   49.6462   30.8615 C   0  0  0  0  0  0  0  0  0  0  0  0
   26.1302   51.0058   30.6896 C   0  0  0  0  0  0  0  0  0  0  0  0
   26.7667   51.4699   29.6180 C   0  0  0  0  0  0  0  0  0  0  0  0
   27.3022   52.8256   29.5234 C   0  0  0  0  0  0  0  0  0  0  0  0
   27.8128   52.9511   28.0507 C   0  0  0  0  0  0  0  0  0  0  0  0
   28.1243   53.8548   27.5180 N   0  0  0  0  0  0  0  0  0  0  0  0
   28.5614   54.9609   26.7879 C   0  0  0  0  0  0  0  0  0  0  0  0
   28.5990   54.5175   25.4436 C   0  0  0  0  0  0  0  0  0  0  0  0
   28.6202   54.0493   24.0912 C   0  0  0  0  0  0  0  0  0  0  0  0
   28.6272   53.6044   22.7430 N   0  0  0  0  0  0  0  0  0  0  0  0
   29.7935   53.7606   22.3762 C   0  0  0  0  0  0  0  0  0  0  0  0
   30.9514   54.2302   21.7395 C   0  0  0  0  0  0  0  0  0  0  0  0
   31.7065   53.2427   21.0659 C   0  0  0  0  0  0  0  0  0  0  0  0
   33.0300   53.8865   20.4513 C   0  0  0  0  0  0  0  0  0  0  0  0
   33.2723   52.5416   19.6306 C   0  0  0  0  0  0  0  0  0  0  0  0
   33.4725   51.5365   19.0228 C   0  0  0  0  0  0  0  0  0  0  0  0
   33.7049   50.4086   18.3526 C   0  0  0  0  0  0  0  0  0  0  0  0
   34.5643   49.7164   17.7495 C   0  0  0  0  0  0  0  0  0  0  0  0
   34.8985   48.3095   18.1747 C   0  0  0  0  0  0  0  0  0  0  0  0
   33.3325   47.6904   18.8537 Cl  0  0  0  0  0  0  0  0  0  0  0  0
   35.3360   50.2114   16.5401 C   0  0  0  0  0  0  0  0  0  0  0  0
   36.3384   51.1068   16.8431 O   0  0  0  0  0  0  0  0  0  0  0  0
   37.9153   50.5379   16.6449 Cl  0  0  0  0  0  0  0  0  0  0  0  0
  1  2  1  0
  2  3  1  0
  3  4  2  3
  4  5  1  0
  5  6  1  0
  6  7  2  3
  7  8  1  0
  8  9  1  0
  9 10  3  0
 10 11  1  0
 11 12  2  3
 12 13  1  0
 13 14  2  3
 14 15  1  0
 15 16  1  0
 16 17  3  0
 17 18  1  0
 18 19  2  3
 19 20  1  0
 20 21  1  0
 19 22  1  0
 22 23  1  0
 23 24  1  0
M  END
$$$$
