
     RDKit          3D

 21 23  0  0  0  0  0  0  0  0999 V2000
  150.7934  145.6923  137.2390 C   0  0  0  0  0  0  0  0  0  0  0  0
  150.9602  146.3707  138.3123 C   0  0  0  0  0  0  0  0  0  0  0  0
  149.7710  146.5561  139.2665 C   0  0  0  0  0  0  0  0  0  0  0  0
  150.1280  147.1490  140.3878 C   0  0  0  0  0  0  0  0  0  0  0  0
  150.3091  148.5407  140.6823 N   0  0  0  0  0  2  0  0  0  0  0  0
  151.1497  149.5096  139.9405 N   0  0  0  0  0  0  0  0  0  0  0  0
  151.5209  150.6133  140.7128 C   0  0  0  0  0  0  0  0  0  0  0  0
  150.9386  150.7651  141.8814 C   0  0  0  0  0  0  0  0  0  0  0  0
  151.1607  151.7239  142.6684 C   0  0  0  0  0  3  0  0  0  0  0  0
  152.3659  152.5547  142.5713 C   0  0  0  0  0  0  0  0  0  0  0  0
  153.6375  151.9179  143.6353 Cl  0  0  0  0  0  0  0  0  0  0  0  0
  152.9016  152.5025  141.1705 C   0  0  0  0  0  0  0  0  0  0  0  0
  154.0832  153.6916  140.7023 Cl  0  0  0  0  0  0  0  0  0  0  0  0
  152.5114  151.5974  140.2948 C   0  0  0  0  0  0  0  0  0  0  0  0
  151.6138  149.4532  138.5618 C   0  0  0  0  0  0  0  0  0  0  0  0
  152.4810  148.4336  138.1886 N   0  0  0  0  0  0  0  0  0  0  0  0
  152.3595  147.0269  138.6869 B   0  0  0  0  0  3  0  0  0  0  0  0
  152.6072  146.9994  140.1843 N   0  0  0  0  0  0  0  0  0  0  0  0
  152.0571  145.9917  140.9995 C   0  0  0  0  0  0  0  0  0  0  0  0
  150.6871  146.5512  141.6094 C   0  0  0  0  0  0  0  0  0  0  0  0
  151.1394  147.5156  142.5125 O   0  0  0  0  0  0  0  0  0  0  0  0
  1  2  2  0
  2  3  1  0
  3  4  2  0
  4  5  1  0
  5  6  1  0
  6  7  1  0
  7  8  2  0
  8  9  2  0
  9 10  1  0
 10 11  1  0
 10 12  1  0
 12 13  1  0
 12 14  2  0
  6 15  1  0
 15 16  1  0
 16 17  1  0
 17 18  1  0
 18 19  1  0
 19 20  1  0
 20 21  1  0
 17  2  1  0
 20  4  1  0
 14  7  1  0
M  CHG  3   5  -1   9   1  17  -1
M  RAD  1  17   2
M  END
$$$$
