
     RDKit          3D

 14 15  0  0  0  0  0  0  0  0999 V2000
  156.2715  148.8949  180.1882 C   0  0  0  0  0  0  0  0  0  0  0  0
  157.3506  148.9255  179.2213 C   0  0  0  0  0  0  0  0  0  0  0  0
  157.0025  149.1992  177.9874 C   0  0  0  0  0  0  0  0  0  0  0  0
  156.5255  149.4184  176.8529 C   0  0  0  0  0  0  0  0  0  0  0  0
  157.2561  150.2447  175.9155 C   0  0  0  0  0  0  0  0  0  0  0  0
  158.8488  150.8952  176.2609 Cl  0  0  0  0  0  0  0  0  0  0  0  0
  156.6271  150.4767  174.7717 N   0  0  0  0  0  0  0  0  0  0  0  0
  155.6969  149.5540  174.1461 C   0  0  0  0  0  0  0  0  0  0  0  0
  154.2447  149.9546  174.2697 C   0  0  0  0  0  0  0  0  0  0  0  0
  153.3035  149.1865  175.0459 C   0  0  0  0  0  0  0  0  0  0  0  0
  153.5054  148.0546  175.7337 O   0  0  0  0  0  0  0  0  0  0  0  0
  154.3454  148.1084  176.8349 N   0  0  0  0  0  0  0  0  0  0  0  0
  155.3239  148.9344  176.3647 C   0  0  0  0  0  0  0  0  0  0  0  0
  155.7319  148.3072  175.0018 C   0  0  0  0  0  0  0  0  0  0  0  0
  1  2  1  0
  2  3  2  0
  3  4  2  0
  4  5  1  0
  5  6  1  0
  5  7  2  0
  7  8  1  0
  8  9  1  0
  9 10  1  0
 10 11  1  0
 11 12  1  0
 12 13  1  0
 13 14  1  0
 13  4  1  0
 14  8  1  0
M  END
$$$$
