
     RDKit          3D

 22 24  0  0  0  0  0  0  0  0999 V2000
  129.0406  139.7219  141.9878 O   0  0  0  0  0  0  0  0  0  0  0  0
  128.4582  140.9750  142.1754 C   0  0  0  0  0  0  0  0  0  0  0  0
  128.0103  141.2000  143.5829 C   0  0  0  0  0  0  0  0  0  0  0  0
  127.6271  139.9663  144.2655 N   0  0  0  0  0  0  0  0  0  0  0  0
  127.4600  139.9259  145.6707 C   0  0  0  0  0  0  0  0  0  0  0  0
  127.5564  141.0524  146.4244 N   0  0  0  0  0  0  0  0  0  0  0  0
  127.4056  141.0600  147.7547 C   0  0  0  0  0  0  0  0  0  0  0  0
  127.5041  142.2245  148.5444 N   0  0  0  0  0  0  0  0  0  0  0  0
  127.4040  143.4669  147.8686 C   0  0  0  0  0  0  0  0  0  0  0  0
  127.4591  144.7168  148.3389 C   0  0  0  0  0  0  0  0  0  0  0  0
  127.6423  145.1605  149.7124 C   0  0  0  0  0  0  0  0  0  0  0  0
  127.7944  144.4090  150.7990 C   0  0  0  0  0  0  0  0  0  0  0  0
  127.9914  145.3096  152.2971 Cl  0  0  0  0  0  0  0  0  0  0  0  0
  127.8193  142.9564  150.9120 C   0  0  0  0  0  0  0  0  0  0  0  0
  127.6938  142.0453  149.9388 C   0  0  0  0  0  0  0  0  0  0  0  0
  127.1461  139.8917  148.3682 N   0  0  0  0  0  0  0  0  0  0  0  0
  127.0322  138.7345  147.7236 C   0  0  0  0  0  0  0  0  0  0  0  0
  126.7670  137.5526  148.3689 C   0  0  0  0  0  0  0  0  0  0  0  0
  126.6511  136.3560  147.6861 C   0  0  0  0  0  0  0  0  0  0  0  0
  126.8061  136.3550  146.3283 C   0  0  0  0  0  0  0  0  0  0  0  0
  127.0761  137.5548  145.6675 C   0  0  0  0  0  0  0  0  0  0  0  0
  127.1946  138.7534  146.3302 C   0  0  0  0  0  0  0  0  0  0  0  0
  1  2  1  0
  2  3  1  0
  3  4  1  0
  4  5  1  0
  5  6  2  0
  6  7  1  0
  7  8  1  0
  8  9  1  0
  9 10  2  0
 10 11  1  0
 11 12  2  0
 12 13  1  0
 12 14  1  0
 14 15  2  0
  7 16  2  0
 16 17  1  0
 17 18  2  0
 18 19  1  0
 19 20  2  0
 20 21  1  0
 21 22  2  0
 22  5  1  0
 15  8  1  0
 22 17  1  0
M  END
$$$$
