
     RDKit          3D

 23 25  0  0  0  0  0  0  0  0999 V2000
   41.4090   24.0564   26.9753 B   0  0  0  0  0  0  0  0  0  0  0  0
   40.2853   23.5201   26.0317 C   0  0  0  0  0  0  0  0  0  0  0  0
   39.5600   24.2509   25.2160 C   0  0  0  0  0  0  0  0  0  0  0  0
   38.6394   23.3475   24.5367 C   0  0  0  0  0  0  0  0  0  0  0  0
   37.7172   23.5900   23.6402 C   0  0  0  0  0  0  0  0  0  0  0  0
   36.8730   22.6050   23.0470 N   0  0  0  0  0  0  0  0  0  0  0  0
   36.7459   21.1324   23.6687 P   0  0  0  0  0  5  0  0  0  0  0  0
   35.2831   21.0628   24.5984 N   0  0  0  0  0  0  0  0  0  0  0  0
   34.0898   20.6119   23.9886 C   0  0  0  0  0  0  0  0  0  0  0  0
   32.8494   21.0239   24.4820 C   0  0  0  0  0  0  0  0  0  0  0  0
   31.6585   20.6019   23.9212 C   0  0  0  0  0  0  0  0  0  0  0  0
   31.6464   19.7489   22.8396 C   0  0  0  0  0  0  0  0  0  0  0  0
   30.1888   19.1620   22.0766 Cl  0  0  0  0  0  0  0  0  0  0  0  0
   32.8643   19.3461   22.3536 C   0  0  0  0  0  0  0  0  0  0  0  0
   32.8854   18.2658   20.9689 Cl  0  0  0  0  0  0  0  0  0  0  0  0
   34.0765   19.7559   22.9022 C   0  0  0  0  0  0  0  0  0  0  0  0
   38.1875   20.8688   24.5883 N   0  0  0  0  0  0  0  0  0  0  0  0
   38.7712   19.2518   24.9242 B   0  0  0  0  0  2  0  0  0  0  0  0
   38.7631   17.5749   25.4454 C   0  0  0  0  0  0  0  0  0  0  0  0
   40.1561   17.0980   25.7951 C   0  0  0  0  0  0  0  0  0  0  0  0
   40.7310   17.8996   26.7661 O   0  0  0  0  0  0  0  0  0  0  0  0
   38.9155   21.9961   25.0512 C   0  0  0  0  0  0  0  0  0  0  0  0
   39.8920   22.1156   25.9361 C   0  0  0  0  0  0  0  0  0  0  0  0
  1  2  1  0
  2  3  2  0
  3  4  1  0
  4  5  2  0
  5  6  1  0
  6  7  2  0
  7  8  1  0
  8  9  1  0
  9 10  2  0
 10 11  1  0
 11 12  2  0
 12 13  1  0
 12 14  1  0
 14 15  1  0
 14 16  2  0
  7 17  1  0
 17 18  1  0
 18 19  1  0
 19 20  1  0
 20 21  1  0
 17 22  1  0
 22 23  2  0
 23  2  1  0
 22  4  1  0
 16  9  1  0
M  CHG  1  18   1
M  END
$$$$
