
     RDKit          3D

 18 19  0  0  0  0  0  0  0  0999 V2000
  128.9281  103.4083   70.7038 C   0  0  0  0  0  0  0  0  0  0  0  0
  127.7912  104.1452   69.9764 C   0  0  0  0  0  0  0  0  0  0  0  0
  127.8543  103.7846   68.6260 N   0  0  0  0  0  0  0  0  0  0  0  0
  127.9874  104.7378   67.6031 C   0  0  0  0  0  0  0  0  0  0  0  0
  128.1740  103.9581   66.3338 C   0  0  0  0  0  0  0  0  0  0  0  0
  127.9526  102.6121   66.3227 C   0  0  0  0  0  0  0  0  0  0  0  0
  128.1217  101.8752   65.1595 C   0  0  0  0  0  0  0  0  0  0  0  0
  128.5247  102.5473   63.9997 C   0  0  0  0  0  0  0  0  0  0  0  0
  128.7477  103.9019   64.0104 C   0  0  0  0  0  0  0  0  0  0  0  0
  129.1440  104.5356   62.8525 O   0  0  0  0  0  0  0  0  0  0  0  0
  128.5745  104.6189   65.1769 C   0  0  0  0  0  0  0  0  0  0  0  0
  128.8700  106.3433   65.1440 Cl  0  0  0  0  0  0  0  0  0  0  0  0
  126.5449  103.9321   70.7132 C   0  0  0  0  0  0  0  0  0  0  0  0
  125.3230  104.0178   70.0499 C   0  0  0  0  0  0  0  0  0  0  0  0
  124.1113  103.8098   70.6632 C   0  0  0  0  0  0  0  0  0  0  0  0
  124.1646  103.5021   72.0111 C   0  0  0  0  0  0  0  0  0  0  0  0
  125.3483  103.4078   72.7012 C   0  0  0  0  0  0  0  0  0  0  0  0
  126.5461  103.6223   72.0545 C   0  0  0  0  0  0  0  0  0  0  0  0
  1  2  1  0
  2  3  1  0
  3  4  1  0
  4  5  1  0
  5  6  2  0
  6  7  1  0
  7  8  2  0
  8  9  1  0
  9 10  1  0
  9 11  2  0
 11 12  1  0
  2 13  1  0
 13 14  2  0
 14 15  1  0
 15 16  2  0
 16 17  1  0
 17 18  2  0
 11  5  1  0
 18 13  1  0
M  END
$$$$
