
     RDKit          3D

 24 25  0  0  0  0  0  0  0  0999 V2000
  115.8219  149.2125  148.2407 C   0  0  0  0  0  0  0  0  0  0  0  0
  117.2027  149.8512  148.1673 C   0  0  0  0  0  0  0  0  0  0  0  0
  118.0658  149.2153  147.1376 C   0  0  0  0  0  0  0  0  0  0  0  0
  118.4312  147.9242  147.5403 O   0  0  0  0  0  0  0  0  0  0  0  0
  119.3626  149.9699  146.9157 C   0  0  0  0  0  0  0  0  0  0  0  0
  119.0778  151.4397  146.8098 C   0  0  0  0  0  0  0  0  0  0  0  0
  117.3537  149.0023  145.7883 C   0  0  0  0  0  0  0  0  0  0  0  0
  118.2724  148.9805  144.7365 N   0  0  0  0  0  0  0  0  0  0  0  0
  117.8906  148.6284  143.4302 C   0  0  0  0  0  0  0  0  0  0  0  0
  116.9154  149.5925  142.8356 C   0  0  0  0  0  0  0  0  0  0  0  0
  117.2980  150.8856  142.5541 C   0  0  0  0  0  0  0  0  0  0  0  0
  116.4050  151.7886  141.9915 C   0  0  0  0  0  0  0  0  0  0  0  0
  115.1232  151.3897  141.7107 C   0  0  0  0  0  0  0  0  0  0  0  0
  114.2198  152.2614  141.1516 F   0  0  0  0  0  0  0  0  0  0  0  0
  114.7159  150.0986  141.9833 C   0  0  0  0  0  0  0  0  0  0  0  0
  115.6384  149.2020  142.5534 C   0  0  0  0  0  0  0  0  0  0  0  0
  118.9345  148.2579  142.4670 C   0  0  0  0  0  0  0  0  0  0  0  0
  120.1662  147.7715  142.9300 C   0  0  0  0  0  0  0  0  0  0  0  0
  121.1936  147.3891  142.1134 C   0  0  0  0  0  0  0  0  0  0  0  0
  121.0447  147.4739  140.7535 C   0  0  0  0  0  0  0  0  0  0  0  0
  122.0863  147.0886  139.9381 O   0  0  0  0  0  0  0  0  0  0  0  0
  122.1146  147.2401  138.5335 C   0  0  0  0  0  0  0  0  0  0  0  0
  119.8485  147.9466  140.2521 C   0  0  0  0  0  0  0  0  0  0  0  0
  118.8198  148.3283  141.0978 C   0  0  0  0  0  0  0  0  0  0  0  0
  1  2  1  0
  2  3  1  0
  3  4  1  0
  3  5  1  0
  5  6  1  0
  3  7  1  0
  7  8  1  0
  8  9  1  0
  9 10  1  0
 10 11  2  0
 11 12  1  0
 12 13  2  0
 13 14  1  0
 13 15  1  0
 15 16  2  0
  9 17  1  0
 17 18  2  0
 18 19  1  0
 19 20  2  0
 20 21  1  0
 21 22  1  0
 20 23  1  0
 23 24  2  0
 16 10  1  0
 24 17  1  0
M  END
$$$$
