
     RDKit          3D

 18 19  0  0  0  0  0  0  0  0999 V2000
  134.0345  141.0260  119.8886 Cl  0  0  0  0  0  0  0  0  0  0  0  0
  135.4909  140.3779  119.1439 C   0  0  0  0  0  0  0  0  0  0  0  0
  136.6837  140.5271  119.8051 C   0  0  0  0  0  0  0  0  0  0  0  0
  137.8523  140.0226  119.2365 C   0  0  0  0  0  0  0  0  0  0  0  0
  137.8329  139.3767  118.0233 C   0  0  0  0  0  0  0  0  0  0  0  0
  139.0460  138.8779  117.4861 N   0  0  0  0  0  0  0  0  0  0  0  0
  140.1159  139.7339  117.0256 C   0  0  0  0  0  0  0  0  0  0  0  0
  139.5368  140.8548  116.2475 C   0  0  0  0  0  0  0  0  0  0  0  0
  140.5271  141.6681  115.4707 C   0  0  0  0  0  0  0  0  0  0  0  0
  141.6450  142.1758  116.3270 C   0  0  0  0  0  0  0  0  0  0  0  0
  142.9337  142.0920  115.6795 N   0  0  0  0  0  0  0  0  0  0  0  0
  143.7944  141.0995  116.2705 C   0  0  0  0  0  0  0  0  0  0  0  0
  143.0503  139.8551  116.6922 C   0  0  0  0  0  0  0  0  0  0  0  0
  142.0796  139.5322  115.7827 O   0  0  0  0  0  0  0  0  0  0  0  0
  141.0193  138.8996  116.2632 N   0  0  0  0  0  0  0  0  0  0  0  0
  136.6225  139.2419  117.3835 C   0  0  0  0  0  0  0  0  0  0  0  0
  135.4444  139.7422  117.9410 C   0  0  0  0  0  0  0  0  0  0  0  0
  133.9166  139.5621  117.1148 Cl  0  0  0  0  0  0  0  0  0  0  0  0
  1  2  1  0
  2  3  2  0
  3  4  1  0
  4  5  2  0
  5  6  1  0
  6  7  1  0
  7  8  1  0
  8  9  1  0
  9 10  1  0
 10 11  1  0
 11 12  1  0
 12 13  1  0
 13 14  1  0
 14 15  1  0
  5 16  1  0
 16 17  2  0
 17 18  1  0
 17  2  1  0
 15  7  1  0
M  END
$$$$
