
     RDKit          3D

 17 18  0  0  0  0  0  0  0  0999 V2000
  130.1586  142.2989  126.6821 C   0  0  0  0  0  0  0  0  0  0  0  0
  129.7416  142.9809  127.9390 C   0  0  0  0  0  0  0  0  0  0  0  0
  130.6565  143.2428  129.0814 C   0  0  0  0  0  0  0  0  0  0  0  0
  128.4802  143.3804  128.0515 C   0  0  0  0  0  0  0  0  0  0  0  0
  127.7100  143.3089  129.3198 C   0  0  0  0  0  0  0  0  0  0  0  0
  126.4308  143.8507  129.0375 O   0  0  0  0  0  0  0  0  0  0  0  0
  125.4450  143.9920  130.0229 C   0  0  0  0  0  0  0  0  0  0  0  0
  125.5475  143.6479  131.3618 C   0  0  0  0  0  0  0  0  0  0  0  0
  124.4390  143.8800  132.1500 C   0  0  0  0  0  0  0  0  0  0  0  0
  123.2793  144.4189  131.6782 C   0  0  0  0  0  0  0  0  0  0  0  0
  122.2499  144.6006  132.5578 C   0  0  0  0  0  0  0  0  0  0  0  0
  121.0783  145.1433  132.0885 C   0  0  0  0  0  0  0  0  0  0  0  0
  121.0262  145.4730  130.7305 C   0  0  0  0  0  0  0  0  0  0  0  0
  120.0489  145.9817  130.0945 O   0  0  0  0  0  0  0  0  0  0  0  0
  122.0387  145.2852  129.9054 O   0  0  0  0  0  0  0  0  0  0  0  0
  123.1758  144.7621  130.3445 C   0  0  0  0  0  0  0  0  0  0  0  0
  124.2736  144.5413  129.5246 C   0  0  0  0  0  0  0  0  0  0  0  0
  1  2  1  0
  2  3  1  0
  2  4  2  3
  4  5  1  0
  5  6  1  0
  6  7  1  0
  7  8  2  0
  8  9  1  0
  9 10  2  0
 10 11  1  0
 11 12  2  0
 12 13  1  0
 13 14  2  0
 13 15  1  0
 15 16  1  0
 16 17  2  0
 17  7  1  0
 16 10  1  0
M  END
$$$$
