
     RDKit          3D

 16 17  0  0  0  0  0  0  0  0999 V2000
   42.6336    7.6763   -1.7378 C   0  0  0  0  0  0  0  0  0  0  0  0
   41.9105    7.7655   -0.5511 O   0  0  0  0  0  0  0  0  0  0  0  0
   40.5655    8.0761   -0.4515 C   0  0  0  0  0  0  0  0  0  0  0  0
   40.1463    9.3693   -0.2312 C   0  0  0  0  0  0  0  0  0  0  0  0
   41.4059   10.7924   -0.0535 Br  0  0  0  0  0  0  0  0  0  0  0  0
   38.8079    9.6836   -0.1312 C   0  0  0  0  0  0  0  0  0  0  0  0
   38.2283   11.4819    0.1749 Br  0  0  0  0  0  0  0  0  0  0  0  0
   37.8960    8.6404   -0.2619 C   0  0  0  0  0  0  0  0  0  0  0  0
   36.5663    8.9445   -0.1638 O   0  0  0  0  0  0  0  0  0  0  0  0
   35.8640    8.7419    1.0576 C   0  0  0  0  0  0  0  0  0  0  0  0
   38.3082    7.3370   -0.4835 C   0  0  0  0  0  0  0  0  0  0  0  0
   37.4089    6.2953   -0.6144 C   0  0  0  0  0  0  0  0  0  0  0  0
   37.8132    4.9948   -0.8353 C   0  0  0  0  0  0  0  0  0  0  0  0
   39.1560    4.6879   -0.9343 C   0  0  0  0  0  0  0  0  0  0  0  0
   40.0446    5.7296   -0.8029 C   0  0  0  0  0  0  0  0  0  0  0  0
   39.6594    7.0358   -0.5819 C   0  0  0  0  0  0  0  0  0  0  0  0
  1  2  1  0
  2  3  1  0
  3  4  2  0
  4  5  1  0
  4  6  1  0
  6  7  1  0
  6  8  2  0
  8  9  1  0
  9 10  1  0
  8 11  1  0
 11 12  2  0
 12 13  1  0
 13 14  2  0
 14 15  1  0
 15 16  2  0
 16  3  1  0
 16 11  1  0
M  END
$$$$
