
     RDKit          3D

  3  2  0  0  0  0  0  0  0  0999 V2000
 -135.9869    6.1839 -165.4554 O   0  0  0  0  0  1  0  0  0  0  0  0
 -135.5551    5.0876 -164.6972 C   0  0  0  0  0  0  0  0  0  0  0  0
 -133.9831    5.4848 -163.9633 Cl  0  0  0  0  0  0  0  0  0  0  0  0
  1  2  1  0
  2  3  1  0
M  CHG  1   1   1
M  RAD  1   1   3
M  END
$$$$
