
     RDKit          3D

 19 20  0  0  0  0  0  0  0  0999 V2000
   43.3402   42.3041   21.6234 C   0  0  0  0  0  0  0  0  0  0  0  0
   42.3999   43.4433   21.9052 C   0  0  2  0  0  0  0  0  0  0  0  0
   41.3203   43.0718   22.8773 C   0  0  0  0  0  0  0  0  0  0  0  0
   40.1535   42.3306   22.3757 C   0  0  0  0  0  0  0  0  0  0  0  0
   39.0948   41.9245   23.3355 C   0  0  0  0  0  0  0  0  0  0  0  0
   37.9675   41.1697   22.5853 C   0  0  0  0  0  0  0  0  0  0  0  0
   37.3059   42.0734   21.7713 O   0  0  0  0  0  0  0  0  0  0  0  0
   41.7154   43.7979   20.6581 N   0  0  0  0  0  0  0  0  0  0  0  0
   41.6546   45.1130   20.1531 C   0  0  0  0  0  0  0  0  0  0  0  0
   42.7114   45.7321   19.5220 C   0  0  0  0  0  0  0  0  0  0  0  0
   42.6564   47.0092   18.9967 C   0  0  0  0  0  0  0  0  0  0  0  0
   41.5105   47.6819   19.1073 N   0  0  0  0  0  0  0  0  0  0  0  0
   40.4326   47.1262   19.7179 C   0  0  0  0  0  0  0  0  0  0  0  0
   39.2602   47.8723   19.8065 C   0  0  0  0  0  0  0  0  0  0  0  0
   38.1231   47.3969   20.4042 C   0  0  0  0  0  0  0  0  0  0  0  0
   36.5191   48.4327   20.5192 Br  0  0  0  0  0  0  0  0  0  0  0  0
   38.1721   46.1276   20.9289 C   0  0  0  0  0  0  0  0  0  0  0  0
   39.3386   45.3617   20.8506 C   0  0  0  0  0  0  0  0  0  0  0  0
   40.4796   45.8442   20.2485 C   0  0  0  0  0  0  0  0  0  0  0  0
  2  1  1  6
  2  3  1  0
  3  4  1  0
  4  5  1  0
  5  6  1  0
  6  7  1  0
  2  8  1  0
  8  9  1  0
  9 10  2  0
 10 11  1  0
 11 12  2  0
 12 13  1  0
 13 14  2  0
 14 15  1  0
 15 16  1  0
 15 17  2  0
 17 18  1  0
 18 19  2  0
 19  9  1  0
 19 13  1  0
M  END
$$$$
