
     RDKit          3D

 19 20  0  0  0  0  0  0  0  0999 V2000
   41.3309   49.4162   22.0862 C   0  0  0  0  0  0  0  0  0  0  0  0
   40.1196   48.6213   21.6832 C   0  0  2  0  0  0  0  0  0  0  0  0
   39.3959   49.2260   20.5174 C   0  0  0  0  0  0  0  0  0  0  0  0
   38.2388   48.5066   19.9641 C   0  0  0  0  0  0  0  0  0  0  0  0
   38.3364   47.9351   18.5964 C   0  0  0  0  0  0  0  0  0  0  0  0
   36.9769   47.3109   18.1899 C   0  0  0  0  0  0  0  0  0  0  0  0
   35.9751   48.2194   18.4865 O   0  0  0  0  0  0  0  0  0  0  0  0
   39.1677   48.6308   22.7982 N   0  0  0  0  0  0  0  0  0  0  0  0
   38.4515   47.4906   23.2168 C   0  0  0  0  0  0  0  0  0  0  0  0
   38.6752   46.2279   22.7128 C   0  0  0  0  0  0  0  0  0  0  0  0
   38.0013   45.0975   23.1348 C   0  0  0  0  0  0  0  0  0  0  0  0
   37.0796   45.2383   24.0878 N   0  0  0  0  0  0  0  0  0  0  0  0
   36.8136   46.4565   24.6252 C   0  0  0  0  0  0  0  0  0  0  0  0
   35.8411   46.5478   25.6176 C   0  0  0  0  0  0  0  0  0  0  0  0
   35.5040   47.7322   26.2176 C   0  0  0  0  0  0  0  0  0  0  0  0
   34.1659   47.8435   27.5799 Br  0  0  0  0  0  0  0  0  0  0  0  0
   36.1705   48.8598   25.8016 C   0  0  0  0  0  0  0  0  0  0  0  0
   37.1500   48.7904   24.8071 C   0  0  0  0  0  0  0  0  0  0  0  0
   37.4856   47.5970   24.2068 C   0  0  0  0  0  0  0  0  0  0  0  0
  2  1  1  1
  2  3  1  0
  3  4  1  0
  4  5  1  0
  5  6  1  0
  6  7  1  0
  2  8  1  0
  8  9  1  0
  9 10  2  0
 10 11  1  0
 11 12  2  0
 12 13  1  0
 13 14  2  0
 14 15  1  0
 15 16  1  0
 15 17  2  0
 17 18  1  0
 18 19  2  0
 19  9  1  0
 19 13  1  0
M  END
$$$$
