
     RDKit          3D

  6  5  0  0  0  0  0  0  0  0999 V2000
  155.8460  150.3261  176.1971 C   0  0  0  0  0  0  0  0  0  0  0  0
  155.4593  149.2377  176.8401 C   0  0  0  0  0  0  0  0  0  0  0  0
  154.0973  148.5270  176.6132 B   0  0  0  0  0  2  0  0  0  0  0  0
  153.2350  149.1950  175.4606 C   0  0  0  0  0  0  0  0  0  0  0  0
  156.3954  148.6582  177.8479 C   0  0  0  0  0  0  0  0  0  0  0  0
  156.9970  149.8763  178.9782 Cl  0  0  0  0  0  0  0  0  0  0  0  0
  1  2  2  0
  2  3  1  0
  3  4  1  0
  2  5  1  0
  5  6  1  0
M  CHG  1   3  -1
M  RAD  1   3   3
M  END
$$$$
