
     RDKit          3D

 26 26  0  0  0  0  0  0  0  0999 V2000
   32.7993   23.6051   15.1379 C   0  0  0  0  0  0  0  0  0  0  0  0
   33.1934   22.5433   14.0883 C   0  0  0  0  0  0  0  0  0  0  0  0
   32.4091   21.5018   13.6841 C   0  0  0  0  0  0  0  0  0  0  0  0
   31.6659   20.5152   13.3007 C   0  0  0  0  0  0  0  0  0  0  0  0
   32.3282   19.3015   12.8648 N   0  0  0  0  0  0  0  0  0  0  0  0
   31.8867   18.6371   11.9048 C   0  0  0  0  0  0  0  0  0  0  0  0
   31.4165   18.0989   10.8344 N   0  0  0  0  0  0  0  0  0  0  0  0
   34.4779   22.7318   13.6448 C   0  0  0  0  0  0  0  0  0  0  0  0
   35.2746   23.8067   14.1314 C   0  0  0  0  0  0  0  0  0  0  0  0
   36.5420   23.9239   13.7911 C   0  0  0  0  0  0  0  0  0  0  0  0
   37.0420   25.1695   13.3906 N   0  0  0  0  0  0  0  0  0  0  0  0
   38.0638   25.3493   12.4470 C   0  0  0  0  0  0  0  0  0  0  0  0
   38.9335   24.1966   11.9991 C   0  0  0  0  0  0  0  0  0  0  0  0
   39.5517   24.4576   10.3528 Cl  0  0  0  0  0  0  0  0  0  0  0  0
   38.2507   26.5482   11.9627 N   0  0  0  0  0  0  0  0  0  0  0  0
   37.2911   27.5337   12.3037 C   0  0  0  0  0  0  0  0  0  0  0  0
   37.0049   27.8579   13.5988 C   0  0  0  0  0  0  0  0  0  0  0  0
   36.0877   28.8220   13.9723 C   0  0  0  0  0  0  0  0  0  0  0  0
   35.4394   29.4781   12.9477 C   0  0  0  0  0  0  0  0  0  0  0  0
   35.6988   29.1809   11.6104 C   0  0  0  0  0  0  0  0  0  0  0  0
   36.6149   28.2176   11.2706 C   0  0  0  0  0  0  0  0  0  0  0  0
   36.9303   27.8366    9.8964 C   0  0  0  0  0  0  0  0  0  0  0  0
   35.9944   28.4347    8.9448 N   0  0  0  0  0  0  0  0  0  0  0  0
   36.7066   29.0035    7.8167 C   0  0  0  0  0  0  0  0  0  0  0  0
   35.8829   28.8291    6.5511 C   0  0  0  0  0  0  0  0  0  0  0  0
   36.1772   29.9502    5.7400 O   0  0  0  0  0  0  0  0  0  0  0  0
  1  2  1  0
  2  3  1  0
  3  4  2  3
  4  5  1  0
  5  6  2  0
  6  7  2  0
  2  8  2  3
  8  9  1  0
  9 10  2  3
 10 11  1  0
 11 12  1  0
 12 13  1  0
 13 14  1  0
 12 15  2  3
 15 16  1  0
 16 17  2  0
 17 18  1  0
 18 19  2  0
 19 20  1  0
 20 21  2  0
 21 22  1  0
 22 23  1  0
 23 24  1  0
 24 25  1  0
 25 26  1  0
 21 16  1  0
M  END
$$$$
