
     RDKit          3D

 21 22  0  0  0  0  0  0  0  0999 V2000
  151.3281  157.3467  153.9600 C   0  0  0  0  0  0  0  0  0  0  0  0
  150.8089  157.0915  155.0719 C   0  0  0  0  0  0  0  0  0  0  0  0
  151.1686  157.7014  156.3489 C   0  0  0  0  0  0  0  0  0  0  0  0
  150.3343  157.5278  157.3903 C   0  0  0  0  0  0  0  0  0  0  0  0
  149.3178  156.5278  157.3389 N   0  0  0  0  0  0  0  0  0  0  0  0
  148.9425  155.9766  158.4367 C   0  0  0  0  0  0  0  0  0  0  0  0
  147.8748  154.9455  158.3651 C   0  0  0  0  0  0  0  0  0  0  0  0
  147.8193  154.1304  157.2327 C   0  0  0  0  0  0  0  0  0  0  0  0
  146.9086  153.1253  157.1391 C   0  0  0  0  0  0  0  0  0  0  0  0
  145.9839  152.8491  158.1551 C   0  0  0  0  0  0  0  0  0  0  0  0
  144.8294  151.5647  158.0003 Cl  0  0  0  0  0  0  0  0  0  0  0  0
  146.0500  153.6637  159.2699 C   0  0  0  0  0  0  0  0  0  0  0  0
  144.9305  153.3652  160.5579 Cl  0  0  0  0  0  0  0  0  0  0  0  0
  146.9891  154.6919  159.3548 C   0  0  0  0  0  0  0  0  0  0  0  0
  149.5909  156.4258  159.6058 N   0  0  0  0  0  0  0  0  0  0  0  0
  149.9372  157.6986  159.7421 O   0  0  0  0  0  0  0  0  0  0  0  0
  150.4954  158.3292  158.6337 C   0  0  0  0  0  0  0  0  0  0  0  0
  152.2305  158.6914  159.0071 S   0  0  0  0  0  2  0  0  0  0  0  0
  152.6869  160.3304  158.9626 N   0  0  0  0  0  0  0  0  0  0  0  0
  151.6884  161.3011  159.3641 C   0  0  0  0  0  0  0  0  0  0  0  0
  151.7892  162.5031  158.4075 C   0  0  0  0  0  0  0  0  0  0  0  0
  1  2  2  0
  2  3  1  0
  3  4  2  3
  4  5  1  0
  5  6  2  0
  6  7  1  0
  7  8  2  0
  8  9  1  0
  9 10  2  0
 10 11  1  0
 10 12  1  0
 12 13  1  0
 12 14  2  0
  6 15  1  0
 15 16  1  0
 16 17  1  0
 17 18  1  0
 18 19  1  0
 19 20  1  0
 20 21  1  0
 17  4  1  0
 14  7  1  0
M  CHG  1  18  -1
M  RAD  1  18   2
M  END
$$$$
