
     RDKit          3D

 22 24  0  0  0  0  0  0  0  0999 V2000
  170.0401  157.3976  173.1907 O   0  0  0  0  0  0  0  0  0  0  0  0
  169.3143  156.8836  172.1445 C   0  0  0  0  0  0  0  0  0  0  0  0
  168.0676  157.6879  171.8770 C   0  0  0  0  0  0  0  0  0  0  0  0
  166.9154  156.8437  171.6353 N   0  0  0  0  0  0  0  0  0  0  0  0
  166.6300  156.4573  170.2990 C   0  0  0  0  0  0  0  0  0  0  0  0
  167.4912  156.7968  169.2945 N   0  0  0  0  0  0  0  0  0  0  0  0
  167.2920  156.4710  168.0203 C   0  0  0  0  0  0  0  0  0  0  0  0
  168.5366  156.9979  166.7897 P   0  0  0  0  0  0  0  0  0  0  0  0
  167.6673  157.6056  165.3107 C   0  0  0  0  0  0  0  0  0  0  0  0
  168.3702  158.0365  164.1967 C   0  0  0  0  0  0  0  0  0  0  0  0
  167.7472  158.5027  163.0599 C   0  0  0  0  0  0  0  0  0  0  0  0
  166.3668  158.5412  163.0319 C   0  0  0  0  0  0  0  0  0  0  0  0
  165.6535  158.1096  164.1481 C   0  0  0  0  0  0  0  0  0  0  0  0
  163.9083  158.1704  164.0823 Cl  0  0  0  0  0  0  0  0  0  0  0  0
  166.2946  157.6467  165.2757 C   0  0  0  0  0  0  0  0  0  0  0  0
  166.1940  155.7772  167.7108 N   0  0  0  0  0  0  0  0  0  0  0  0
  165.2814  155.3910  168.6138 C   0  0  0  0  0  0  0  0  0  0  0  0
  164.1553  154.6743  168.2654 C   0  0  0  0  0  0  0  0  0  0  0  0
  163.2360  154.2911  169.2108 C   0  0  0  0  0  0  0  0  0  0  0  0
  163.4642  154.6392  170.5177 C   0  0  0  0  0  0  0  0  0  0  0  0
  164.5789  155.3569  170.9132 C   0  0  0  0  0  0  0  0  0  0  0  0
  165.5011  155.7390  169.9503 C   0  0  0  0  0  0  0  0  0  0  0  0
  1  2  1  0
  2  3  1  0
  3  4  1  0
  4  5  1  0
  5  6  2  0
  6  7  1  0
  7  8  1  0
  8  9  1  0
  9 10  2  0
 10 11  1  0
 11 12  2  0
 12 13  1  0
 13 14  1  0
 13 15  2  0
  7 16  2  0
 16 17  1  0
 17 18  2  0
 18 19  1  0
 19 20  2  0
 20 21  1  0
 21 22  2  0
 22  5  1  0
 15  9  1  0
 22 17  1  0
M  END
$$$$
