
     RDKit          3D

 24 25  0  0  0  0  0  0  0  0999 V2000
   15.3550  -26.7658  -23.3428 C   0  0  0  0  0  0  0  0  0  0  0  0
   15.5161  -25.7747  -22.7025 C   0  0  0  0  0  0  0  0  0  0  0  0
   13.4878  -25.2519  -23.3318 Cl  0  0  0  0  0  0  0  0  0  0  0  0
   15.6127  -24.5813  -21.9336 C   0  0  0  0  0  0  0  0  0  0  0  0
   16.6609  -23.6508  -22.1441 C   0  0  0  0  0  0  0  0  0  0  0  0
   16.8873  -22.4156  -21.4692 C   0  0  0  0  0  0  0  0  0  0  0  0
   15.6015  -21.8349  -20.8758 N   0  0  0  0  0  0  0  0  0  0  0  0
   17.9138  -22.1773  -20.3559 C   0  0  0  0  0  0  0  0  0  0  0  0
   18.4991  -21.1586  -20.4867 N   0  0  0  0  0  0  0  0  0  0  0  0
   19.4308  -20.1799  -20.1294 C   0  0  0  0  0  0  0  0  0  0  0  0
   18.9392  -19.3854  -18.9062 C   0  0  0  0  0  0  0  0  0  0  0  0
   18.4179  -20.1368  -17.9970 N   0  0  0  0  0  0  0  0  0  0  0  0
   18.9216  -21.4124  -17.7444 O   0  0  0  0  0  0  0  0  0  0  0  0
   20.0619  -21.7395  -18.5970 C   0  0  0  0  0  0  0  0  0  0  0  0
   20.5591  -20.9963  -19.4647 N   0  0  0  0  0  0  0  0  0  0  0  0
   20.5349  -23.0497  -18.2639 N   0  0  0  0  0  0  0  0  0  0  0  0
   21.2327  -23.9015  -19.2362 C   0  0  0  0  0  0  0  0  0  0  0  0
   20.7592  -25.3519  -18.9518 C   0  0  0  0  0  0  0  0  0  0  0  0
   19.4164  -25.3261  -18.8926 O   0  0  0  0  0  0  0  0  0  0  0  0
   18.6466  -26.3412  -19.4351 C   0  0  0  0  0  0  0  0  0  0  0  0
   17.2772  -25.5457  -19.4575 C   0  0  0  0  0  0  0  0  0  0  0  0
   16.2816  -24.9785  -19.4881 C   0  0  0  0  0  0  0  0  0  0  0  0
   15.0790  -24.2975  -19.5386 N   0  0  0  0  0  0  0  0  0  0  0  0
   14.7252  -24.1125  -20.8765 C   0  0  0  0  0  0  0  0  0  0  0  0
  1  2  2  0
  2  3  1  0
  2  4  1  0
  4  5  2  0
  5  6  1  0
  6  7  1  0
  6  8  1  0
  8  9  2  0
  9 10  1  0
 10 11  1  0
 11 12  2  0
 12 13  1  0
 13 14  1  0
 14 15  2  0
 14 16  1  0
 16 17  1  0
 17 18  1  0
 18 19  1  0
 19 20  1  0
 20 21  1  0
 21 22  3  0
 22 23  1  0
 23 24  2  0
 24  4  1  0
 15 10  1  0
M  END
$$$$
