
     RDKit          3D

 24 26  0  0  0  0  0  0  0  0999 V2000
    4.9207    0.3240  -31.1490 C   0  0  0  0  0  0  0  0  0  0  0  0
    4.4512   -0.9939  -31.3758 O   0  0  0  0  0  0  0  0  0  0  0  0
    3.1949   -1.2063  -31.9306 C   0  0  0  0  0  0  0  0  0  0  0  0
    2.6909   -2.3944  -32.3720 C   0  0  0  0  0  0  0  0  0  0  0  0
    1.4245   -2.4870  -32.9071 C   0  0  0  0  0  0  0  0  0  0  0  0
    0.5929   -1.3930  -33.0293 C   0  0  0  0  0  0  0  0  0  0  0  0
   -0.7304   -1.5927  -33.6089 C   0  0  0  0  0  0  0  0  0  0  0  0
   -1.7822   -0.7313  -33.3782 C   0  0  0  0  0  0  0  0  0  0  0  0
   -3.0209   -0.9767  -33.9604 C   0  0  0  0  0  0  0  0  0  0  0  0
   -4.0156   -0.2262  -33.7857 O   0  0  0  0  0  0  0  0  0  0  0  0
   -3.1661   -2.1016  -34.7717 C   0  0  0  0  0  0  0  0  0  0  0  0
   -4.3518   -2.4348  -35.3956 C   0  0  0  0  0  0  0  0  0  0  0  0
   -5.4185   -1.5989  -35.1872 O   0  0  0  0  0  0  0  0  0  0  0  0
   -4.4231   -3.5706  -36.1895 C   0  0  0  0  0  0  0  0  0  0  0  0
   -5.6684   -3.7961  -36.7605 O   0  0  0  0  0  0  0  0  0  0  0  0
   -6.8800   -3.5809  -36.0711 C   0  0  0  0  0  0  0  0  0  0  0  0
   -3.3175   -4.3960  -36.3779 C   0  0  0  0  0  0  0  0  0  0  0  0
   -3.5764   -5.4651  -37.1895 O   0  0  0  0  0  0  0  0  0  0  0  0
   -2.6129   -6.4584  -37.5122 C   0  0  0  0  0  0  0  0  0  0  0  0
   -2.1415   -4.0429  -35.7437 C   0  0  0  0  0  0  0  0  0  0  0  0
   -2.0601   -2.9149  -34.9517 C   0  0  0  0  0  0  0  0  0  0  0  0
   -0.9139   -2.6354  -34.3774 O   0  0  0  0  0  0  0  0  0  0  0  0
    1.0914   -0.2013  -32.5894 C   0  0  0  0  0  0  0  0  0  0  0  0
    2.3606   -0.1161  -32.0546 C   0  0  0  0  0  0  0  0  0  0  0  0
  1  2  1  0
  2  3  1  0
  3  4  2  0
  4  5  1  0
  5  6  2  0
  6  7  1  0
  7  8  2  0
  8  9  1  0
  9 10  2  0
  9 11  1  0
 11 12  2  0
 12 13  1  0
 12 14  1  0
 14 15  1  0
 15 16  1  0
 14 17  2  0
 17 18  1  0
 18 19  1  0
 17 20  1  0
 20 21  2  0
 21 22  1  0
  6 23  1  0
 23 24  2  0
 24  3  1  0
 22  7  1  0
 21 11  1  0
M  END
$$$$
