
     RDKit          3D

 24 26  0  0  0  0  0  0  0  0999 V2000
   -6.2616    8.6716  -22.6624 C   0  0  0  0  0  0  0  0  0  0  0  0
   -5.9762    7.3120  -22.3822 O   0  0  0  0  0  0  0  0  0  0  0  0
   -4.7650    6.9535  -21.8028 C   0  0  0  0  0  0  0  0  0  0  0  0
   -3.5381    7.4728  -22.0951 C   0  0  0  0  0  0  0  0  0  0  0  0
   -2.3988    7.0383  -21.4533 C   0  0  0  0  0  0  0  0  0  0  0  0
   -2.4266    6.0586  -20.4823 C   0  0  0  0  0  0  0  0  0  0  0  0
   -1.1670    5.6665  -19.8606 C   0  0  0  0  0  0  0  0  0  0  0  0
    0.0570    6.1138  -20.3114 C   0  0  0  0  0  0  0  0  0  0  0  0
    1.2234    5.7032  -19.6753 C   0  0  0  0  0  0  0  0  0  0  0  0
    2.3669    6.0785  -20.0423 O   0  0  0  0  0  0  0  0  0  0  0  0
    1.1207    4.8396  -18.5852 C   0  0  0  0  0  0  0  0  0  0  0  0
    2.2156    4.3735  -17.8852 C   0  0  0  0  0  0  0  0  0  0  0  0
    3.4487    4.7990  -18.3075 O   0  0  0  0  0  0  0  0  0  0  0  0
    2.0377    3.5153  -16.8094 C   0  0  0  0  0  0  0  0  0  0  0  0
    3.2150    3.1184  -16.1895 O   0  0  0  0  0  0  0  0  0  0  0  0
    4.3529    3.9468  -16.0993 C   0  0  0  0  0  0  0  0  0  0  0  0
    0.7686    3.1047  -16.4096 C   0  0  0  0  0  0  0  0  0  0  0  0
    0.7901    2.2617  -15.3337 O   0  0  0  0  0  0  0  0  0  0  0  0
   -0.3621    1.5990  -14.8313 C   0  0  0  0  0  0  0  0  0  0  0  0
   -0.3124    3.5839  -17.1248 C   0  0  0  0  0  0  0  0  0  0  0  0
   -0.1463    4.4380  -18.1967 C   0  0  0  0  0  0  0  0  0  0  0  0
   -1.2140    4.8570  -18.8340 O   0  0  0  0  0  0  0  0  0  0  0  0
   -3.6512    5.5350  -20.1852 C   0  0  0  0  0  0  0  0  0  0  0  0
   -4.7880    5.9750  -20.8321 C   0  0  0  0  0  0  0  0  0  0  0  0
  1  2  1  0
  2  3  1  0
  3  4  2  0
  4  5  1  0
  5  6  2  0
  6  7  1  0
  7  8  2  0
  8  9  1  0
  9 10  2  0
  9 11  1  0
 11 12  2  0
 12 13  1  0
 12 14  1  0
 14 15  1  0
 15 16  1  0
 14 17  2  0
 17 18  1  0
 18 19  1  0
 17 20  1  0
 20 21  2  0
 21 22  1  0
  6 23  1  0
 23 24  2  0
 24  3  1  0
 22  7  1  0
 21 11  1  0
M  END
$$$$
