
     RDKit          3D

 20 21  0  0  0  0  0  0  0  0999 V2000
   40.5040   35.8025   22.5254 C   0  0  0  0  0  0  0  0  0  0  0  0
   41.7006   35.1338   23.1242 C   0  0  0  0  0  0  0  0  0  0  0  0
   42.3113   34.0970   22.4705 C   0  0  0  0  0  0  0  0  0  0  0  0
   43.4338   33.4170   22.9599 C   0  0  0  0  0  0  0  0  0  0  0  0
   44.0001   32.3658   22.2249 N   0  0  0  0  0  0  0  0  0  0  0  0
   43.4213   31.8437   20.9997 C   0  0  2  0  0  0  0  0  0  0  0  0
   42.7925   30.4994   21.1724 C   0  0  0  0  0  0  0  0  0  0  0  0
   44.4239   31.8615   19.8894 C   0  0  0  0  0  0  0  0  0  0  0  0
   44.6647   33.2077   19.3044 C   0  0  0  0  0  0  0  0  0  0  0  0
   45.7876   33.0920   18.3745 N   0  0  0  0  0  4  0  0  0  0  0  0
   46.5051   34.3320   18.2401 C   0  0  0  0  0  0  0  0  0  0  0  0
   45.2389   32.7523   17.0730 C   0  0  0  0  0  0  0  0  0  0  0  0
   43.9147   33.8526   24.1717 C   0  0  0  0  0  0  0  0  0  0  0  0
   45.0065   33.2568   24.7381 C   0  0  0  0  0  0  0  0  0  0  0  0
   45.5289   33.6696   25.9715 C   0  0  0  0  0  0  0  0  0  0  0  0
   46.6217   33.0524   26.5096 F   0  0  0  0  0  0  0  0  0  0  0  0
   44.9098   34.7142   26.6251 C   0  0  0  0  0  0  0  0  0  0  0  0
   43.8104   35.3060   26.0438 C   0  0  0  0  0  0  0  0  0  0  0  0
   43.2823   34.9144   24.8322 C   0  0  0  0  0  0  0  0  0  0  0  0
   42.2008   35.5272   24.3027 N   0  0  0  0  0  0  0  0  0  0  0  0
  1  2  1  0
  2  3  2  0
  3  4  1  0
  4  5  1  0
  5  6  1  0
  6  7  1  1
  6  8  1  0
  8  9  1  0
  9 10  1  0
 10 11  1  0
 10 12  1  0
  4 13  2  0
 13 14  1  0
 14 15  2  0
 15 16  1  0
 15 17  1  0
 17 18  2  0
 18 19  1  0
 19 20  2  0
 20  2  1  0
 19 13  1  0
M  CHG  1  10   1
M  END
$$$$
