
     RDKit          3D

 24 27  0  0  0  0  0  0  0  0999 V2000
  127.3713  140.2256  142.8552 Cl  0  0  0  0  0  0  0  0  0  0  0  0
  127.5236  140.3706  144.5980 C   0  0  0  0  0  0  0  0  0  0  0  0
  127.3648  141.5744  145.2451 C   0  0  0  0  0  0  0  0  0  0  0  0
  127.4964  141.6205  146.6077 C   0  0  0  0  0  0  0  0  0  0  0  0
  127.7818  140.4952  147.3310 C   0  0  0  0  0  0  0  0  0  0  0  0
  127.9070  140.5690  148.7364 N   0  0  0  0  0  0  0  0  0  0  0  0
  127.8426  141.8456  149.3901 C   0  0  0  0  0  0  0  0  0  0  0  0
  128.1334  141.9717  150.6938 N   0  0  0  0  0  0  0  0  0  0  0  0
  128.0874  143.1343  151.3426 C   0  0  0  0  0  0  0  0  0  0  0  0
  128.4005  143.2539  152.7931 C   0  0  0  0  0  0  0  0  0  0  0  0
  128.7933  141.9563  153.4120 C   0  0  0  0  0  0  0  0  0  0  0  0
  128.7223  142.0860  154.9172 C   0  0  0  0  0  0  0  0  0  0  0  0
  129.4070  141.0784  155.7475 C   0  0  0  0  0  0  0  0  0  0  0  0
  129.7801  142.3253  155.7287 N   0  0  0  0  0  0  0  0  0  0  0  0
  127.7213  144.2648  150.6335 C   0  0  0  0  0  0  0  0  0  0  0  0
  127.6488  145.5176  151.2056 C   0  0  0  0  0  0  0  0  0  0  0  0
  127.2796  146.6242  150.4426 C   0  0  0  0  0  0  0  0  0  0  0  0
  126.9732  146.5316  149.1034 C   0  0  0  0  0  0  0  0  0  0  0  0
  127.0454  145.2819  148.5293 C   0  0  0  0  0  0  0  0  0  0  0  0
  127.4146  144.1680  149.2857 C   0  0  0  0  0  0  0  0  0  0  0  0
  127.4895  142.9550  148.7223 N   0  0  0  0  0  0  0  0  0  0  0  0
  127.9370  139.3046  146.6720 C   0  0  0  0  0  0  0  0  0  0  0  0
  127.8113  139.2183  145.2954 C   0  0  0  0  0  0  0  0  0  0  0  0
  128.0103  137.6849  144.4438 Cl  0  0  0  0  0  0  0  0  0  0  0  0
  1  2  1  0
  2  3  2  0
  3  4  1  0
  4  5  2  0
  5  6  1  0
  6  7  1  0
  7  8  2  0
  8  9  1  0
  9 10  1  0
 10 11  1  0
 11 12  1  0
 12 13  1  0
 13 14  2  0
  9 15  2  0
 15 16  1  0
 16 17  2  0
 17 18  1  0
 18 19  2  0
 19 20  1  0
 20 21  2  0
  5 22  1  0
 22 23  2  0
 23 24  1  0
 23  2  1  0
 21  7  1  0
 14 12  1  0
 20 15  1  0
M  END
$$$$
