
     RDKit          3D

 11 11  0  0  0  0  0  0  0  0999 V2000
  128.2074  138.0897  143.3575 C   0  0  0  0  0  0  0  0  0  0  0  0
  127.4792  138.8564  142.5907 C   0  0  0  0  0  0  0  0  0  0  0  0
  127.8594  140.1426  142.0771 C   0  0  0  0  0  0  0  0  0  0  0  0
  128.9461  140.4346  141.3949 C   0  0  0  0  0  0  0  0  0  0  0  0
  130.0025  139.5471  141.0013 C   0  0  0  0  0  0  0  0  0  0  0  0
  129.9047  138.4945  140.1910 C   0  0  0  0  0  0  0  0  0  0  0  0
  128.7406  138.0725  139.5794 N   0  0  0  0  0  0  0  0  0  0  0  0
  127.7873  137.3192  139.8744 C   0  0  0  0  0  0  0  0  0  0  0  0
  127.5995  136.5833  141.0755 N   0  0  0  0  0  0  0  0  0  0  0  0
  128.6994  136.2355  141.9526 C   0  0  0  0  0  0  0  0  0  0  0  0
  129.0827  137.3688  142.7885 N   0  0  0  0  0  3  0  0  0  0  0  0
  1  2  2  0
  2  3  1  0
  3  4  2  0
  4  5  1  0
  5  6  2  0
  6  7  1  0
  7  8  2  0
  8  9  1  0
  9 10  1  0
 10 11  1  0
 11  1  2  0
M  CHG  1  11   1
M  RAD  1  11   2
M  END
$$$$
