
     RDKit          3D

 11 11  0  0  0  0  0  0  0  0999 V2000
  128.9995  137.9621  138.4013 C   0  0  0  0  0  0  0  0  0  0  0  0
  130.0282  138.2500  139.1530 C   0  0  0  0  0  0  0  0  0  0  0  0
  130.3283  139.5361  139.7173 C   0  0  0  0  0  0  0  0  0  0  0  0
  129.5358  140.2821  140.4570 C   0  0  0  0  0  0  0  0  0  0  0  0
  128.1945  139.9930  140.8762 C   0  0  0  0  0  0  0  0  0  0  0  0
  127.7969  138.9869  141.6532 C   0  0  0  0  0  0  0  0  0  0  0  0
  128.6315  138.0311  142.1985 N   0  0  0  0  0  0  0  0  0  0  0  0
  129.0961  136.9271  141.8396 C   0  0  0  0  0  0  0  0  0  0  0  0
  128.8726  136.2467  140.6121 N   0  0  0  0  0  0  0  0  0  0  0  0
  127.7165  136.5093  139.7787 C   0  0  0  0  0  0  0  0  0  0  0  0
  127.9019  137.7243  138.9915 N   0  0  0  0  0  3  0  0  0  0  0  0
  1  2  2  0
  2  3  1  0
  3  4  2  0
  4  5  1  0
  5  6  2  0
  6  7  1  0
  7  8  2  0
  8  9  1  0
  9 10  1  0
 10 11  1  0
 11  1  2  0
M  CHG  1  11   1
M  RAD  1  11   2
M  END
$$$$
