
     RDKit          3D

 19 20  0  0  0  0  0  0  0  0999 V2000
  131.2102  140.5166  138.3623 Cl  0  0  0  0  0  0  0  0  0  0  0  0
  129.7307  139.5926  138.5013 C   0  0  0  0  0  0  0  0  0  0  0  0
  128.5168  139.9780  138.6760 C   0  0  0  0  0  0  0  0  0  0  0  0
  127.7747  139.0022  139.3629 C   0  0  0  0  0  0  0  0  0  0  0  0
  126.5825  139.3350  139.9273 N   0  0  0  0  0  0  0  0  0  0  0  0
  126.1664  139.9878  141.1642 C   0  0  0  0  0  0  0  0  0  0  0  0
  126.8224  140.7017  141.8809 N   0  0  0  0  0  0  0  0  0  0  0  0
  127.9575  141.3181  142.1944 C   0  0  0  0  0  0  0  0  0  0  0  0
  128.8333  140.5305  142.6360 C   0  0  0  0  0  0  0  0  0  0  0  0
  128.6942  139.1045  142.7628 C   0  0  0  0  0  0  0  0  0  0  0  0
  128.6226  138.2941  142.8292 C   0  0  0  0  0  0  0  0  0  0  0  0
  128.5037  137.1604  142.9174 N   0  0  0  0  0  0  0  0  0  0  0  0
  128.2249  135.8047  142.9341 C   0  0  0  0  0  0  0  0  0  0  0  0
  128.6380  135.6913  141.2312 C   0  0  0  0  0  0  0  0  0  0  0  0
  127.4683  136.1318  140.6006 O   0  0  0  0  0  0  0  0  0  0  0  0
  127.9801  136.5226  139.4093 N   0  0  0  0  0  0  0  0  0  0  0  0
  128.5523  137.8287  139.1221 C   0  0  0  0  0  0  0  0  0  0  0  0
  129.6740  138.1369  138.5067 C   0  0  0  0  0  0  0  0  0  0  0  0
  130.8946  137.1212  137.7627 Cl  0  0  0  0  0  0  0  0  0  0  0  0
  1  2  1  0
  2  3  2  0
  3  4  2  0
  4  5  1  0
  5  6  1  0
  6  7  2  0
  7  8  1  0
  8  9  2  0
  9 10  1  0
 10 11  3  0
 11 12  1  0
 12 13  1  0
 13 14  1  0
 14 15  1  0
 15 16  1  0
 16 17  1  0
 17 18  2  0
 18 19  1  0
 18  2  1  0
 17  4  1  0
M  END
$$$$
