
     RDKit          3D

 27 28  0  0  0  0  0  0  0  0999 V2000
   -2.7069   -9.5709  -62.0215 C   0  0  0  0  0  0  0  0  0  0  0  0
   -1.9862   -8.2279  -62.0194 C   0  0  0  0  0  0  0  0  0  0  0  0
   -0.8814   -8.2185  -60.9758 C   0  0  0  0  0  0  0  0  0  0  0  0
    0.3735   -7.5935  -61.4677 C   0  0  0  0  0  0  0  0  0  0  0  0
    1.3962   -7.1788  -60.8117 C   0  0  0  0  0  0  0  0  0  0  0  0
    1.7754   -7.1300  -59.4263 C   0  0  0  0  0  0  0  0  0  0  0  0
    1.1859   -6.7785  -58.3143 C   0  0  0  0  0  0  0  0  0  0  0  0
   -0.1019   -6.2891  -58.0189 N   0  0  0  0  0  0  0  0  0  0  0  0
   -0.7765   -5.0604  -58.2759 C   0  0  0  0  0  0  0  0  0  0  0  0
   -1.5294   -4.9640  -59.5816 C   0  0  0  0  0  0  0  0  0  0  0  0
   -1.2129   -4.8712  -60.8281 C   0  0  0  0  0  0  0  0  0  0  0  0
   -2.0131   -4.7914  -62.0920 C   0  0  0  0  0  0  0  0  0  0  0  0
   -2.8031   -5.7903  -62.5672 C   0  0  0  0  0  0  0  0  0  0  0  0
   -2.9416   -7.0735  -61.8694 C   0  0  0  0  0  0  0  0  0  0  0  0
   -3.8752   -7.3964  -61.0259 N   0  0  0  0  0  0  0  0  0  0  0  0
   -5.0049   -6.7664  -60.4981 C   0  0  0  0  0  0  0  0  0  0  0  0
   -4.9424   -6.0399  -59.2980 N   0  0  0  0  0  0  0  0  0  0  0  0
   -4.8083   -6.7105  -58.0647 C   0  0  0  0  0  0  0  0  0  0  0  0
   -5.6695   -6.1214  -56.9797 C   0  0  0  0  0  0  0  0  0  0  0  0
   -6.8629   -5.4940  -57.4985 N   0  0  0  0  0  0  0  0  0  0  0  0
   -7.7077   -4.6442  -56.2424 Cl  0  0  0  0  0  0  0  0  0  0  0  0
   -6.5998   -4.5801  -58.5679 C   0  0  0  0  0  0  0  0  0  0  0  0
   -7.7010   -4.4985  -59.5703 C   0  0  0  0  0  0  0  0  0  0  0  0
   -8.5534   -2.9269  -59.3765 Cl  0  0  0  0  0  0  0  0  0  0  0  0
   -3.3441   -6.7392  -57.6670 C   0  0  0  0  0  0  0  0  0  0  0  0
   -2.8577   -5.5820  -56.9390 C   0  0  0  0  0  0  0  0  0  0  0  0
   -1.7997   -4.8511  -57.1497 C   0  0  0  0  0  0  0  0  0  0  0  0
  1  2  1  0
  2  3  1  0
  3  4  1  0
  4  5  2  0
  5  6  1  0
  6  7  2  0
  7  8  1  0
  8  9  1  0
  9 10  1  0
 10 11  2  0
 11 12  1  0
 12 13  2  0
 13 14  1  0
 14 15  2  0
 15 16  1  0
 16 17  1  0
 17 18  1  0
 18 19  1  0
 19 20  1  0
 20 21  1  0
 20 22  1  0
 22 23  1  0
 23 24  1  0
 18 25  1  0
 25 26  1  0
 26 27  2  0
 14  2  1  0
 27  9  1  0
M  END
$$$$
