
     RDKit          3D

 15 14  0  0  0  0  0  0  0  0999 V2000
   24.3270   71.7218   15.6913 C   0  0  0  0  0  0  0  0  0  0  0  0
   23.9030   71.5019   14.4586 C   0  0  0  0  0  0  0  0  0  0  0  0
   24.8795   71.0969   13.4151 C   0  0  0  0  0  0  0  0  0  0  0  0
   25.0514   72.1580   12.3615 C   0  0  0  0  0  0  0  0  0  0  0  0
   22.4800   71.6468   14.0974 C   0  0  0  0  0  0  0  0  0  0  0  0
   21.8125   70.2983   13.8866 C   0  0  0  0  0  0  0  0  0  0  0  0
   21.5415   69.6120   15.1566 C   0  0  0  0  0  0  0  0  0  0  0  0
   20.8829   68.4863   15.3569 C   0  0  0  0  0  0  0  0  0  0  0  0
   19.3606   68.4810   15.2487 C   0  0  0  0  0  0  0  0  0  0  0  0
   21.6060   67.2509   15.6952 C   0  0  0  0  0  0  0  0  0  0  0  0
   20.8019   66.2645   16.5174 C   0  0  0  0  0  0  0  0  0  0  0  0
   20.8336   66.7272   17.9292 C   0  0  0  0  0  0  0  0  0  0  0  0
   21.2533   65.8821   18.8592 C   0  0  0  0  0  0  0  0  0  0  0  0
   20.5404   65.6518   20.1472 C   0  0  0  0  0  0  0  0  0  0  0  0
   22.5262   65.1265   18.5664 C   0  0  0  0  0  0  0  0  0  0  0  0
  1  2  2  0
  2  3  1  0
  3  4  1  0
  2  5  1  0
  5  6  1  0
  6  7  1  0
  7  8  2  0
  8  9  1  0
  8 10  1  0
 10 11  1  0
 11 12  1  0
 12 13  2  3
 13 14  1  0
 13 15  1  0
M  END
$$$$
