
     RDKit          3D

 19 20  0  0  0  0  0  0  0  0999 V2000
  151.8219  148.8493  146.4452 C   0  0  0  0  0  0  0  0  0  0  0  0
  152.5073  149.9980  145.8966 N   0  0  0  0  0  0  0  0  0  0  0  0
  152.2777  151.3092  146.3689 C   0  0  0  0  0  0  0  0  0  0  0  0
  151.5326  151.4404  147.3730 O   0  0  0  0  0  0  0  0  0  0  0  0
  152.8214  152.4727  145.7973 N   0  0  0  0  0  0  0  0  0  0  0  0
  152.4412  153.8028  146.2178 C   0  0  0  0  0  0  0  0  0  0  0  0
  152.9035  154.9697  145.7745 N   0  0  0  0  0  0  0  0  0  0  0  0
  152.4546  156.0452  146.2589 N   0  0  0  0  0  0  0  0  0  0  0  0
  151.5240  156.0080  147.2077 C   0  0  0  0  0  0  0  0  0  0  0  0
  150.8679  157.1744  147.9058 C   0  0  0  0  0  0  0  0  0  0  0  0
  151.2868  157.1809  149.3481 C   0  0  0  0  0  0  0  0  0  0  0  0
  152.1111  158.1959  149.7694 C   0  0  0  0  0  0  0  0  0  0  0  0
  152.5048  158.2165  151.0903 C   0  0  0  0  0  0  0  0  0  0  0  0
  152.1127  157.2761  151.9932 C   0  0  0  0  0  0  0  0  0  0  0  0
  151.2869  156.2701  151.5451 C   0  0  0  0  0  0  0  0  0  0  0  0
  150.8694  155.2950  152.4434 O   0  0  0  0  0  0  0  0  0  0  0  0
  150.1241  154.1774  152.0402 C   0  0  0  0  0  0  0  0  0  0  0  0
  150.8814  156.2267  150.2381 C   0  0  0  0  0  0  0  0  0  0  0  0
  151.3072  154.3220  147.3878 S   0  0  0  0  0  0  0  0  0  0  0  0
  1  2  1  0
  2  3  1  0
  3  4  2  0
  3  5  1  0
  5  6  1  0
  6  7  2  0
  7  8  1  0
  8  9  2  0
  9 10  1  0
 10 11  1  0
 11 12  2  0
 12 13  1  0
 13 14  2  0
 14 15  1  0
 15 16  1  0
 16 17  1  0
 15 18  2  0
  9 19  1  0
 19  6  1  0
 18 11  1  0
M  END
$$$$
