
     RDKit          3D

 20 21  0  0  0  0  0  0  0  0999 V2000
    0.7279   -7.2785  -61.9084 C   0  0  0  0  0  0  0  0  0  0  0  0
   -0.6238   -6.6664  -61.8324 C   0  0  0  0  0  0  0  0  0  0  0  0
   -0.7184   -5.3920  -61.4792 C   0  0  0  0  0  0  0  0  0  0  0  0
    0.3133   -4.7001  -60.6608 C   0  0  0  0  0  0  0  0  0  0  0  0
    0.1338   -5.0429  -59.2154 C   0  0  0  0  0  0  0  0  0  0  0  0
   -0.8303   -5.8791  -58.7948 N   0  0  0  0  0  0  0  0  0  0  0  0
   -0.9903   -6.1876  -57.4886 C   0  0  0  0  0  0  0  0  0  0  0  0
   -2.0648   -7.0883  -57.0733 C   0  0  0  0  0  0  0  0  0  0  0  0
   -3.1692   -7.2719  -58.0613 C   0  0  0  0  0  0  0  0  0  0  0  0
   -3.0446   -8.4534  -58.7946 O   0  0  0  0  0  0  0  0  0  0  0  0
   -4.2483   -8.6775  -59.3708 N   0  0  0  0  0  0  0  0  0  0  0  0
   -0.1114   -5.6003  -56.6047 C   0  0  0  0  0  0  0  0  0  0  0  0
   -0.2074   -5.8712  -55.2608 C   0  0  0  0  0  0  0  0  0  0  0  0
    0.6924   -5.2691  -54.4054 C   0  0  0  0  0  0  0  0  0  0  0  0
    1.6857   -4.4061  -54.8403 C   0  0  0  0  0  0  0  0  0  0  0  0
    1.7820   -4.1350  -56.1876 C   0  0  0  0  0  0  0  0  0  0  0  0
    0.8899   -4.7296  -57.0546 C   0  0  0  0  0  0  0  0  0  0  0  0
    0.9892   -4.4708  -58.3515 N   0  0  0  0  0  0  0  0  0  0  0  0
   -1.8264   -7.4615  -62.1446 C   0  0  0  0  0  0  0  0  0  0  0  0
   -1.5276   -8.7652  -63.2944 Cl  0  0  0  0  0  0  0  0  0  0  0  0
  1  2  1  0
  2  3  2  3
  3  4  1  0
  4  5  1  0
  5  6  2  0
  6  7  1  0
  7  8  1  0
  8  9  1  0
  9 10  1  0
 10 11  1  0
  7 12  2  0
 12 13  1  0
 13 14  2  0
 14 15  1  0
 15 16  2  0
 16 17  1  0
 17 18  2  0
  2 19  1  0
 19 20  1  0
 18  5  1  0
 17 12  1  0
M  END
$$$$
