
     RDKit          3D

 15 15  0  0  0  0  0  0  0  0999 V2000
   19.5582  -19.5583  -20.4224 P   0  0  0  0  0  0  0  0  0  0  0  0
   19.0944  -21.0142  -19.4374 C   0  0  0  0  0  0  0  0  0  0  0  0
   19.1698  -22.2330  -19.9289 C   0  0  0  0  0  0  0  0  0  0  0  0
   18.6987  -23.3843  -19.1889 C   0  0  0  0  0  0  0  0  0  0  0  0
   18.6798  -24.5732  -19.6990 C   0  0  0  0  0  0  0  0  0  0  0  0
   18.1772  -25.8033  -19.0669 C   0  0  0  0  0  0  0  0  0  0  0  0
   16.6855  -25.7777  -19.2235 C   0  0  0  0  0  0  0  0  0  0  0  0
   16.1800  -26.4125  -20.2021 N   0  0  0  0  0  0  0  0  0  0  0  0
   14.9962  -25.9609  -20.8584 C   0  0  0  0  0  0  0  0  0  0  0  0
   15.3543  -25.0172  -21.9658 C   0  0  0  0  0  0  0  0  0  0  0  0
   14.7777  -23.8439  -22.1293 C   0  0  0  0  0  0  0  0  0  0  0  0
   15.3644  -23.1955  -23.2947 C   0  0  0  0  0  0  0  0  0  0  0  0
   16.2842  -23.9686  -23.8281 C   0  0  0  0  0  0  0  0  0  0  0  0
   17.2720  -23.6218  -25.2517 Cl  0  0  0  0  0  0  0  0  0  0  0  0
   16.3511  -25.1937  -23.0219 C   0  0  0  0  0  0  0  0  0  0  0  0
  1  2  1  0
  2  3  2  3
  3  4  1  0
  4  5  2  3
  5  6  1  0
  6  7  1  0
  7  8  2  3
  8  9  1  0
  9 10  1  0
 10 11  2  0
 11 12  1  0
 12 13  2  0
 13 14  1  0
 13 15  1  0
 15 10  1  0
M  END
$$$$
