
     RDKit          3D

 22 23  0  0  0  0  0  0  0  0999 V2000
   -5.3438  -11.9701  -61.3716 C   0  0  0  0  0  0  0  0  0  0  0  0
   -5.0527  -10.5230  -61.5691 C   0  0  0  0  0  0  0  0  0  0  0  0
   -3.8937  -10.0284  -60.7008 C   0  0  0  0  0  0  0  0  0  0  0  0
   -3.6328   -8.5866  -60.9861 C   0  0  1  0  0  0  0  0  0  0  0  0
   -4.2790   -7.7296  -59.9001 C   0  0  0  0  0  0  0  0  0  0  0  0
   -2.2247   -8.1806  -61.2615 C   0  0  1  0  0  0  0  0  0  0  0  0
   -1.6787   -8.5999  -62.6016 C   0  0  0  0  0  0  0  0  0  0  0  0
   -0.1919   -8.6458  -62.7260 C   0  0  0  0  0  0  0  0  0  0  0  0
   -1.9859   -6.8314  -61.1371 O   0  0  0  0  0  0  0  0  0  0  0  0
   -1.3496   -6.0303  -60.2798 C   0  0  0  0  0  0  0  0  0  0  0  0
   -0.8699   -6.6359  -59.1038 C   0  0  0  0  0  0  0  0  0  0  0  0
   -0.1975   -5.9301  -58.1362 C   0  0  0  0  0  0  0  0  0  0  0  0
    0.2720   -6.5362  -56.9795 C   0  0  0  0  0  0  0  0  0  0  0  0
    0.9393   -5.7990  -56.0354 C   0  0  0  0  0  0  0  0  0  0  0  0
    1.1201   -4.4614  -56.2776 C   0  0  0  0  0  0  0  0  0  0  0  0
    1.7256   -3.7638  -55.4336 O   0  0  0  0  0  0  0  0  0  0  0  0
    0.6721   -3.9163  -57.3668 O   0  0  0  0  0  0  0  0  0  0  0  0
    0.0332   -4.5680  -58.2947 C   0  0  0  0  0  0  0  0  0  0  0  0
   -0.4190   -3.9475  -59.4247 C   0  0  0  0  0  0  0  0  0  0  0  0
   -1.0995   -4.6862  -60.3933 C   0  0  0  0  0  0  0  0  0  0  0  0
   -1.5382   -4.0343  -61.5116 O   0  0  0  0  0  0  0  0  0  0  0  0
   -1.9173   -2.6722  -61.5624 C   0  0  0  0  0  0  0  0  0  0  0  0
  1  2  1  0
  2  3  1  0
  3  4  1  0
  4  5  1  1
  4  6  1  0
  6  7  1  6
  7  8  1  0
  6  9  1  0
  9 10  1  0
 10 11  2  0
 11 12  1  0
 12 13  1  0
 13 14  2  0
 14 15  1  0
 15 16  2  0
 15 17  1  0
 17 18  1  0
 18 19  1  0
 19 20  2  0
 20 21  1  0
 21 22  1  0
 20 10  1  0
 18 12  2  0
M  END
$$$$
