
     RDKit          3D

 22 23  0  0  0  0  0  0  0  0999 V2000
  -14.9351   -4.6257    3.8511 C   0  0  0  0  0  0  0  0  0  0  0  0
  -15.3434   -4.6472    2.4191 C   0  0  0  0  0  0  0  0  0  0  0  0
  -14.3111   -5.3303    1.5194 C   0  0  0  0  0  0  0  0  0  0  0  0
  -14.9925   -5.9098    0.3243 C   0  0  1  0  0  0  0  0  0  0  0  0
  -14.5228   -5.1790   -0.9315 C   0  0  0  0  0  0  0  0  0  0  0  0
  -14.9586   -7.3915    0.1604 C   0  0  1  0  0  0  0  0  0  0  0  0
  -15.5465   -8.1840    1.2989 C   0  0  0  0  0  0  0  0  0  0  0  0
  -15.2369   -9.6441    1.3189 C   0  0  0  0  0  0  0  0  0  0  0  0
  -15.5503   -7.8509   -0.9937 O   0  0  0  0  0  0  0  0  0  0  0  0
  -15.2095   -8.6399   -2.0149 C   0  0  0  0  0  0  0  0  0  0  0  0
  -13.8500   -8.9928   -2.0998 C   0  0  0  0  0  0  0  0  0  0  0  0
  -13.3617   -9.7985   -3.0992 C   0  0  0  0  0  0  0  0  0  0  0  0
  -12.0191  -10.1411   -3.1746 C   0  0  0  0  0  0  0  0  0  0  0  0
  -11.5679  -10.9479   -4.1873 C   0  0  0  0  0  0  0  0  0  0  0  0
  -12.4827  -11.3942   -5.1062 C   0  0  0  0  0  0  0  0  0  0  0  0
  -12.0995  -12.1321   -6.0413 O   0  0  0  0  0  0  0  0  0  0  0  0
  -13.7336  -11.0607   -5.0155 O   0  0  0  0  0  0  0  0  0  0  0  0
  -14.2150  -10.2989   -4.0765 C   0  0  0  0  0  0  0  0  0  0  0  0
  -15.5415   -9.9763   -4.0247 C   0  0  0  0  0  0  0  0  0  0  0  0
  -16.0135   -9.1561   -2.9994 C   0  0  0  0  0  0  0  0  0  0  0  0
  -17.3462   -8.8530   -2.9773 O   0  0  0  0  0  0  0  0  0  0  0  0
  -18.3087   -9.3531   -3.8856 C   0  0  0  0  0  0  0  0  0  0  0  0
  1  2  1  0
  2  3  1  0
  3  4  1  0
  4  5  1  6
  4  6  1  0
  6  7  1  1
  7  8  1  0
  6  9  1  0
  9 10  1  0
 10 11  2  0
 11 12  1  0
 12 13  1  0
 13 14  2  0
 14 15  1  0
 15 16  2  0
 15 17  1  0
 17 18  1  0
 18 19  1  0
 19 20  2  0
 20 21  1  0
 21 22  1  0
 20 10  1  0
 18 12  2  0
M  END
$$$$
