
     RDKit          3D

 22 23  0  0  0  0  0  0  0  0999 V2000
    3.0252   31.6829   -0.4916 C   0  0  0  0  0  0  0  0  0  0  0  0
    2.7781   31.8451   -1.9513 C   0  0  0  0  0  0  0  0  0  0  0  0
    3.8986   31.2554   -2.8105 C   0  0  0  0  0  0  0  0  0  0  0  0
    3.6474   31.5703   -4.2479 C   0  0  1  0  0  0  0  0  0  0  0  0
    3.5067   33.0811   -4.4191 C   0  0  0  0  0  0  0  0  0  0  0  0
    4.5670   30.9715   -5.2573 C   0  0  1  0  0  0  0  0  0  0  0  0
    6.0115   31.3844   -5.1450 C   0  0  0  0  0  0  0  0  0  0  0  0
    6.9358   30.8515   -6.1890 C   0  0  0  0  0  0  0  0  0  0  0  0
    4.5468   29.5965   -5.3019 O   0  0  0  0  0  0  0  0  0  0  0  0
    3.7847   28.6515   -5.8568 C   0  0  0  0  0  0  0  0  0  0  0  0
    2.7995   29.0978   -6.7567 C   0  0  0  0  0  0  0  0  0  0  0  0
    1.9464   28.2341   -7.3991 C   0  0  0  0  0  0  0  0  0  0  0  0
    0.9777   28.6838   -8.2851 C   0  0  0  0  0  0  0  0  0  0  0  0
    0.1436   27.7914   -8.9080 C   0  0  0  0  0  0  0  0  0  0  0  0
    0.3039   26.4594   -8.6239 C   0  0  0  0  0  0  0  0  0  0  0  0
   -0.4431   25.6222   -9.1776 O   0  0  0  0  0  0  0  0  0  0  0  0
    1.2170   26.0621   -7.7916 O   0  0  0  0  0  0  0  0  0  0  0  0
    2.0341   26.8647   -7.1736 C   0  0  0  0  0  0  0  0  0  0  0  0
    2.9795   26.3964   -6.3057 C   0  0  0  0  0  0  0  0  0  0  0  0
    3.8345   27.2940   -5.6653 C   0  0  0  0  0  0  0  0  0  0  0  0
    4.7689   26.7918   -4.8032 O   0  0  0  0  0  0  0  0  0  0  0  0
    5.0449   25.4171   -4.6143 C   0  0  0  0  0  0  0  0  0  0  0  0
  1  2  1  0
  2  3  1  0
  3  4  1  0
  4  5  1  1
  4  6  1  0
  6  7  1  1
  7  8  1  0
  6  9  1  0
  9 10  1  0
 10 11  2  0
 11 12  1  0
 12 13  1  0
 13 14  2  0
 14 15  1  0
 15 16  2  0
 15 17  1  0
 17 18  1  0
 18 19  1  0
 19 20  2  0
 20 21  1  0
 21 22  1  0
 20 10  1  0
 18 12  2  0
M  END
$$$$
