
     RDKit          3D

 23 25  0  0  0  0  0  0  0  0999 V2000
  126.7301  136.0704  144.3948 N   0  0  0  0  0  0  0  0  0  0  0  0
  127.3465  136.6152  143.2289 C   0  0  0  0  0  0  0  0  0  0  0  0
  127.8081  135.9888  142.2153 N   0  0  0  0  0  0  0  0  0  0  0  0
  128.3522  136.8794  141.2367 C   0  0  0  0  0  0  0  0  0  0  0  0
  128.9396  136.7064  140.0020 C   0  0  0  0  0  0  0  0  0  0  0  0
  129.3736  137.7619  139.2374 C   0  0  0  0  0  0  0  0  0  0  0  0
  129.2417  139.0627  139.6722 C   0  0  0  0  0  0  0  0  0  0  0  0
  128.6487  139.2298  140.9181 C   0  0  0  0  0  0  0  0  0  0  0  0
  128.2117  138.1751  141.6907 C   0  0  0  0  0  0  0  0  0  0  0  0
  127.5711  138.0822  143.0127 C   0  0  0  0  0  0  0  0  0  0  0  0
  128.3475  138.5318  144.1168 N   0  0  0  0  0  0  0  0  0  0  0  0
  128.3005  139.9082  144.4517 C   0  0  0  0  0  0  0  0  0  0  0  0
  128.1687  139.9716  145.9897 C   0  0  0  0  0  0  0  0  0  0  0  0
  127.4428  141.0975  146.3534 O   0  0  0  0  0  0  0  0  0  0  0  0
  127.6963  141.4693  147.5979 N   0  0  0  0  0  0  0  0  0  0  0  0
  127.3663  142.7586  148.0876 C   0  0  0  0  0  0  0  0  0  0  0  0
  126.5533  143.6547  147.4074 C   0  0  0  0  0  0  0  0  0  0  0  0
  126.2800  144.8946  147.9318 C   0  0  0  0  0  0  0  0  0  0  0  0
  126.8190  145.2385  149.1357 C   0  0  0  0  0  0  0  0  0  0  0  0
  126.4781  146.8218  149.8143 Cl  0  0  0  0  0  0  0  0  0  0  0  0
  127.6390  144.3835  149.8620 C   0  0  0  0  0  0  0  0  0  0  0  0
  128.3397  144.7887  151.3909 Cl  0  0  0  0  0  0  0  0  0  0  0  0
  127.8953  143.1462  149.3100 C   0  0  0  0  0  0  0  0  0  0  0  0
  1  2  1  0
  2  3  2  0
  3  4  1  0
  4  5  2  0
  5  6  1  0
  6  7  2  0
  7  8  1  0
  8  9  2  0
  9 10  1  0
 10 11  1  0
 11 12  1  0
 12 13  1  0
 13 14  1  0
 14 15  1  0
 15 16  1  0
 16 17  2  0
 17 18  1  0
 18 19  2  0
 19 20  1  0
 19 21  1  0
 21 22  1  0
 21 23  2  0
 10  2  1  0
 23 16  1  0
  9  4  1  0
M  END
$$$$
