
     RDKit          3D

 26 28  0  0  0  0  0  0  0  0999 V2000
    1.6777   31.2692   -7.4357 O   0  0  0  0  0  0  0  0  0  0  0  0
    2.0620   30.0765   -7.2421 C   0  0  0  0  0  0  0  0  0  0  0  0
    1.0864   29.1497   -6.7745 N   0  0  0  0  0  0  0  0  0  0  0  0
    0.0033   28.6828   -7.6386 C   0  0  0  0  0  0  0  0  0  0  0  0
    0.4185   27.3386   -8.1637 C   0  0  0  0  0  0  0  0  0  0  0  0
    0.8481   26.2467   -7.4676 C   0  0  0  0  0  0  0  0  0  0  0  0
    1.1138   25.2485   -8.3769 C   0  0  0  0  0  0  0  0  0  0  0  0
    0.8212   25.8069   -9.6195 C   0  0  0  0  0  0  0  0  0  0  0  0
    0.4166   27.0400   -9.4263 O   0  0  0  0  0  0  0  0  0  0  0  0
    3.4650   29.6419   -7.4861 C   0  0  0  0  0  0  0  0  0  0  0  0
    4.3657   30.8075   -7.2629 C   0  0  0  0  0  0  0  0  0  0  0  0
    5.6653   30.5130   -6.6058 C   0  0  0  0  0  0  0  0  0  0  0  0
    5.6568   29.4490   -5.6618 N   0  0  0  0  0  0  0  0  0  0  0  0
    6.6869   29.7327   -4.3147 S   0  0  0  0  0  6  0  0  0  0  0  0
    7.9010   30.4932   -4.7953 O   0  0  0  0  0  0  0  0  0  0  0  0
    7.0973   28.4762   -3.6391 O   0  0  0  0  0  0  0  0  0  0  0  0
    5.7722   30.7123   -3.1646 C   0  0  0  0  0  0  0  0  0  0  0  0
    5.7074   32.0855   -3.3276 C   0  0  0  0  0  0  0  0  0  0  0  0
    4.9986   32.8678   -2.4406 C   0  0  0  0  0  0  0  0  0  0  0  0
    4.3293   32.3144   -1.3606 C   0  0  0  0  0  0  0  0  0  0  0  0
    3.4271   33.3175   -0.2330 Cl  0  0  0  0  0  0  0  0  0  0  0  0
    4.4077   30.9446   -1.2181 C   0  0  0  0  0  0  0  0  0  0  0  0
    3.7693   30.3788   -0.1807 F   0  0  0  0  0  0  0  0  0  0  0  0
    5.1152   30.1440   -2.0997 C   0  0  0  0  0  0  0  0  0  0  0  0
    4.3524   28.9924   -5.2881 C   0  0  0  0  0  0  0  0  0  0  0  0
    3.7279   28.4683   -6.5858 C   0  0  0  0  0  0  0  0  0  0  0  0
  1  2  2  0
  2  3  1  0
  3  4  1  0
  4  5  1  0
  5  6  2  0
  6  7  1  0
  7  8  2  0
  8  9  1  0
  2 10  1  0
 10 11  1  0
 11 12  1  0
 12 13  1  0
 13 14  1  0
 14 15  2  0
 14 16  2  0
 14 17  1  0
 17 18  2  0
 18 19  1  0
 19 20  2  0
 20 21  1  0
 20 22  1  0
 22 23  1  0
 22 24  2  0
 13 25  1  0
 25 26  1  0
  9  5  1  0
 26 10  1  0
 24 17  1  0
M  END
$$$$
