
     RDKit          3D

 26 28  0  0  0  0  0  0  0  0999 V2000
    0.6313   29.4666   -5.3101 O   0  0  0  0  0  0  0  0  0  0  0  0
    1.4435   30.0741   -6.0710 C   0  0  0  0  0  0  0  0  0  0  0  0
    1.5007   29.6478   -7.4291 N   0  0  0  0  0  0  0  0  0  0  0  0
    0.3670   28.9796   -8.0664 C   0  0  0  0  0  0  0  0  0  0  0  0
    0.6495   27.5057   -8.0145 C   0  0  0  0  0  0  0  0  0  0  0  0
    0.6899   26.6085   -9.0416 C   0  0  0  0  0  0  0  0  0  0  0  0
    0.9872   25.3751   -8.5085 C   0  0  0  0  0  0  0  0  0  0  0  0
    1.1159   25.5969   -7.1389 C   0  0  0  0  0  0  0  0  0  0  0  0
    0.9054   26.8719   -6.9118 O   0  0  0  0  0  0  0  0  0  0  0  0
    2.3083   31.1857   -5.5882 C   0  0  0  0  0  0  0  0  0  0  0  0
    2.4487   31.0666   -4.1099 C   0  0  0  0  0  0  0  0  0  0  0  0
    3.7858   31.3951   -3.5516 C   0  0  0  0  0  0  0  0  0  0  0  0
    4.8983   31.0891   -4.3834 N   0  0  0  0  0  0  0  0  0  0  0  0
    6.2677   30.5352   -3.5037 S   0  0  0  0  0  6  0  0  0  0  0  0
    5.9513   29.1693   -2.9400 O   0  0  0  0  0  0  0  0  0  0  0  0
    6.6583   31.4663   -2.4155 O   0  0  0  0  0  0  0  0  0  0  0  0
    7.6060   30.4240   -4.6508 C   0  0  0  0  0  0  0  0  0  0  0  0
    8.2267   31.5772   -5.0995 C   0  0  0  0  0  0  0  0  0  0  0  0
    9.2730   31.5116   -5.9950 C   0  0  0  0  0  0  0  0  0  0  0  0
    9.7400   30.2989   -6.4766 C   0  0  0  0  0  0  0  0  0  0  0  0
   11.0748   30.2220   -7.6185 Cl  0  0  0  0  0  0  0  0  0  0  0  0
    9.1066   29.1634   -6.0160 C   0  0  0  0  0  0  0  0  0  0  0  0
    9.5367   27.9729   -6.4647 F   0  0  0  0  0  0  0  0  0  0  0  0
    8.0542   29.2113   -5.1166 C   0  0  0  0  0  0  0  0  0  0  0  0
    4.5890   30.2728   -5.5182 C   0  0  0  0  0  0  0  0  0  0  0  0
    3.6021   31.1019   -6.3471 C   0  0  0  0  0  0  0  0  0  0  0  0
  1  2  2  0
  2  3  1  0
  3  4  1  0
  4  5  1  0
  5  6  2  0
  6  7  1  0
  7  8  2  0
  8  9  1  0
  2 10  1  0
 10 11  1  0
 11 12  1  0
 12 13  1  0
 13 14  1  0
 14 15  2  0
 14 16  2  0
 14 17  1  0
 17 18  2  0
 18 19  1  0
 19 20  2  0
 20 21  1  0
 20 22  1  0
 22 23  1  0
 22 24  2  0
 13 25  1  0
 25 26  1  0
  9  5  1  0
 26 10  1  0
 24 17  1  0
M  END
$$$$
