
     RDKit          3D

 19 21  0  0  0  0  0  0  0  0999 V2000
  127.5269  140.4391  143.5433 C   0  0  0  0  0  0  0  0  0  0  0  0
  127.4486  140.2455  145.0259 C   0  0  0  0  0  0  0  0  0  0  0  0
  127.5669  141.2838  145.8718 N   0  0  0  0  0  0  0  0  0  0  0  0
  127.4979  141.1246  147.2243 C   0  0  0  0  0  0  0  0  0  0  0  0
  127.6255  142.2331  148.0882 N   0  0  0  0  0  0  0  0  0  0  0  0
  127.4986  143.5652  147.6407 C   0  0  0  0  0  0  0  0  0  0  0  0
  127.6254  144.5618  148.4815 C   0  0  0  0  0  0  0  0  0  0  0  0
  127.8996  144.4009  149.9078 C   0  0  0  0  0  0  0  0  0  0  0  0
  126.6312  145.1791  150.9074 Cl  0  0  0  0  0  0  0  0  0  0  0  0
  128.0190  142.9994  150.3036 C   0  0  0  0  0  0  0  0  0  0  0  0
  128.3507  142.5506  151.9864 Cl  0  0  0  0  0  0  0  0  0  0  0  0
  127.8916  142.0191  149.4623 C   0  0  0  0  0  0  0  0  0  0  0  0
  127.3048  139.8693  147.6644 N   0  0  0  0  0  0  0  0  0  0  0  0
  127.1792  138.7923  146.8709 C   0  0  0  0  0  0  0  0  0  0  0  0
  126.9817  137.5295  147.4066 C   0  0  0  0  0  0  0  0  0  0  0  0
  126.8540  136.4318  146.5886 C   0  0  0  0  0  0  0  0  0  0  0  0
  126.9270  136.6175  145.2263 C   0  0  0  0  0  0  0  0  0  0  0  0
  127.1241  137.8736  144.6765 C   0  0  0  0  0  0  0  0  0  0  0  0
  127.2524  138.9772  145.4989 C   0  0  0  0  0  0  0  0  0  0  0  0
  1  2  1  0
  2  3  2  0
  3  4  1  0
  4  5  1  0
  5  6  1  0
  6  7  2  0
  7  8  1  0
  8  9  1  0
  8 10  1  0
 10 11  1  0
 10 12  2  0
  4 13  2  0
 13 14  1  0
 14 15  2  0
 15 16  1  0
 16 17  2  0
 17 18  1  0
 18 19  2  0
 19  2  1  0
 12  5  1  0
 19 14  1  0
M  END
$$$$
