
     RDKit          3D

 20 22  0  0  0  0  0  0  0  0999 V2000
   30.9759   21.6402   26.0160 Cl  0  0  0  0  0  0  0  0  0  0  0  0
   29.5613   22.2786   25.0796 C   0  0  0  0  0  0  0  0  0  0  0  0
   29.6385   22.0638   23.7892 C   0  0  0  0  0  0  0  0  0  0  0  0
   28.7613   22.4011   22.7532 N   0  0  0  0  0  0  0  0  0  0  0  0
   27.3656   22.0691   22.6640 C   0  0  0  0  0  0  0  0  0  0  0  0
   26.6220   22.7987   21.8529 N   0  0  0  0  0  0  0  0  0  0  0  0
   25.2069   22.8787   22.0465 C   0  0  0  0  0  0  0  0  0  0  0  0
   24.3389   23.2582   20.9738 C   0  0  0  0  0  0  0  0  0  0  0  0
   23.5181   22.2535   20.6854 C   0  0  0  0  0  0  0  0  0  0  0  0
   23.8051   21.1269   21.5593 C   0  0  0  0  0  0  0  0  0  0  0  0
   24.7891   21.4555   22.3598 C   0  0  0  0  0  0  0  0  0  0  0  0
   25.5725   20.7585   23.3950 C   0  0  0  0  0  0  0  0  0  0  0  0
   26.8236   21.0267   23.4469 N   0  0  0  0  0  0  0  0  0  0  0  0
   24.9138   19.8561   24.2541 N   0  0  0  0  0  0  0  0  0  0  0  0
   25.2912   19.6451   25.6483 C   0  0  0  0  0  0  0  0  0  0  0  0
   26.6399   20.2718   25.9389 C   0  0  0  0  0  0  0  0  0  0  0  0
   26.5456   21.6380   25.8124 O   0  0  0  0  0  0  0  0  0  0  0  0
   27.3440   22.6664   26.1903 C   0  0  0  0  0  0  0  0  0  0  0  0
   28.5911   22.9497   25.9020 C   0  0  0  0  0  0  0  0  0  0  0  0
   29.1686   24.4446   26.7754 Cl  0  0  0  0  0  0  0  0  0  0  0  0
  1  2  1  0
  2  3  2  0
  3  4  1  0
  4  5  1  0
  5  6  2  0
  6  7  1  0
  7  8  1  0
  8  9  2  0
  9 10  1  0
 10 11  2  0
 11 12  1  0
 12 13  2  0
 12 14  1  0
 14 15  1  0
 15 16  1  0
 16 17  1  0
 17 18  1  0
 18 19  2  0
 19 20  1  0
 19  2  1  0
 13  5  1  0
 11  7  1  0
M  END
$$$$
