
     RDKit          3D

 26 28  0  0  0  0  0  0  0  0999 V2000
   11.3901   38.9482   32.7245 N   0  0  0  0  0  4  0  0  0  0  0  0
   10.6886   37.6874   32.8288 C   0  0  0  0  0  0  0  0  0  0  0  0
   10.8593   36.8600   31.5635 C   0  0  0  0  0  0  0  0  0  0  0  0
   12.0760   36.2176   31.6872 O   0  0  0  0  0  0  0  0  0  0  0  0
   12.2614   35.2224   30.7509 C   0  0  0  0  0  0  0  0  0  0  0  0
   13.5015   35.3505   29.9222 C   0  0  0  0  0  0  0  0  0  0  0  0
   13.6207   34.4009   28.9245 O   0  0  0  0  0  0  0  0  0  0  0  0
   14.4172   34.7406   27.8662 C   0  0  0  0  0  0  0  0  0  0  0  0
   15.3069   33.6419   27.3603 C   0  0  0  0  0  0  0  0  0  0  0  0
   14.6775   33.0122   26.2179 N   0  0  0  0  0  0  0  0  0  0  0  0
   14.2860   31.6497   26.2864 C   0  0  0  0  0  0  0  0  0  0  0  0
   13.7866   31.0002   25.2144 N   0  0  0  0  0  0  0  0  0  0  0  0
   13.3861   29.7355   25.1857 C   0  0  0  0  0  0  0  0  0  0  0  0
   12.8550   29.1038   23.9797 C   0  0  0  0  0  0  0  0  0  0  0  0
   11.8450   28.1714   24.0234 C   0  0  0  0  0  0  0  0  0  0  0  0
   11.3457   27.5752   22.8693 C   0  0  0  0  0  0  0  0  0  0  0  0
   11.8479   27.8984   21.6265 C   0  0  0  0  0  0  0  0  0  0  0  0
   12.8607   28.8330   21.5793 C   0  0  0  0  0  0  0  0  0  0  0  0
   13.3539   29.4238   22.7356 C   0  0  0  0  0  0  0  0  0  0  0  0
   13.4891   29.0381   26.3355 N   0  0  0  0  0  0  0  0  0  0  0  0
   13.9708   29.5725   27.4723 C   0  0  0  0  0  0  0  0  0  0  0  0
   14.0733   28.8500   28.6477 C   0  0  0  0  0  0  0  0  0  0  0  0
   14.5657   29.3962   29.8093 C   0  0  0  0  0  0  0  0  0  0  0  0
   14.9664   30.7076   29.7865 C   0  0  0  0  0  0  0  0  0  0  0  0
   14.8717   31.4570   28.6093 C   0  0  0  0  0  0  0  0  0  0  0  0
   14.3780   30.9054   27.4489 C   0  0  0  0  0  0  0  0  0  0  0  0
  1  2  1  0
  2  3  1  0
  3  4  1  0
  4  5  1  0
  5  6  1  0
  6  7  1  0
  7  8  1  0
  8  9  1  0
  9 10  1  0
 10 11  1  0
 11 12  2  0
 12 13  1  0
 13 14  1  0
 14 15  2  0
 15 16  1  0
 16 17  2  0
 17 18  1  0
 18 19  2  0
 13 20  2  0
 20 21  1  0
 21 22  2  0
 22 23  1  0
 23 24  2  0
 24 25  1  0
 25 26  2  0
 26 11  1  0
 19 14  1  0
 26 21  1  0
M  CHG  1   1   1
M  END
$$$$
