
     RDKit          3D

 17 17  0  0  0  0  0  0  0  0999 V2000
  148.3799  157.5965  158.8061 C   0  0  0  0  0  0  0  0  0  0  0  0
  148.8630  156.7077  159.6211 C   0  0  0  0  0  0  0  0  0  0  0  0
  149.3863  155.7402  160.5394 C   0  0  0  0  0  0  0  0  0  0  0  0
  148.9536  154.4490  160.2301 N   0  0  0  0  0  0  0  0  0  0  0  0
  147.9276  153.8298  160.7153 C   0  0  0  0  0  0  0  0  0  0  0  0
  147.1846  154.1542  161.8523 N   0  0  0  0  0  0  0  0  0  0  0  0
  147.5547  152.6778  159.9235 N   0  0  0  0  0  0  0  0  0  0  0  0
  146.3995  151.9029  160.1452 C   0  0  0  0  0  0  0  0  0  0  0  0
  145.4948  151.9084  159.0504 C   0  0  0  0  0  0  0  0  0  0  0  0
  144.3368  151.1845  159.1231 C   0  0  0  0  0  0  0  0  0  0  0  0
  143.9934  150.4338  160.2283 C   0  0  0  0  0  0  0  0  0  0  0  0
  142.3743  149.4234  160.2214 Br  0  0  0  0  0  0  0  0  0  0  0  0
  144.8941  150.4482  161.2754 C   0  0  0  0  0  0  0  0  0  0  0  0
  146.0747  151.1646  161.2476 C   0  0  0  0  0  0  0  0  0  0  0  0
  150.9061  155.9329  160.4699 C   0  0  0  0  0  0  0  0  0  0  0  0
  151.0866  157.4048  160.8591 C   0  0  0  0  0  0  0  0  0  0  0  0
  151.6579  155.1111  161.4741 C   0  0  0  0  0  0  0  0  0  0  0  0
  1  2  3  0
  2  3  1  0
  3  4  1  0
  4  5  2  3
  5  6  1  0
  5  7  1  0
  7  8  1  0
  8  9  2  0
  9 10  1  0
 10 11  2  0
 11 12  1  0
 11 13  1  0
 13 14  2  0
  3 15  1  0
 15 16  1  0
 15 17  1  0
 14  8  1  0
M  END
$$$$
