
     RDKit          3D

 19 20  0  0  0  0  0  0  0  0999 V2000
   56.0005   35.1533   10.3987 C   0  0  0  0  0  0  0  0  0  0  0  0
   55.9217   35.5040    8.9474 C   0  0  0  0  0  0  0  0  0  0  0  0
   56.3563   36.7193    8.4637 C   0  0  0  0  0  0  0  0  0  0  0  0
   56.2845   37.0508    7.1093 C   0  0  0  0  0  0  0  0  0  0  0  0
   55.7631   36.1397    6.2159 C   0  0  0  0  0  0  0  0  0  0  0  0
   55.6731   36.4436    4.8197 N   0  0  0  0  0  0  0  0  0  0  0  0
   56.8771   36.8548    4.1120 C   0  0  0  0  0  0  0  0  0  0  0  0
   57.5578   37.7985    4.5500 O   0  0  0  0  0  0  0  0  0  0  0  0
   57.2587   36.1776    2.9360 N   0  0  0  0  0  0  0  0  0  0  0  0
   58.1350   36.6685    1.9530 C   0  0  0  0  0  0  0  0  0  0  0  0
   58.0245   36.5630    0.5981 C   0  0  0  0  0  0  0  0  0  0  0  0
   58.9642   37.0942   -0.2962 C   0  0  0  0  0  0  0  0  0  0  0  0
   60.0659   37.7618    0.1800 C   0  0  0  0  0  0  0  0  0  0  0  0
   61.0417   38.3120   -0.7915 C   0  0  0  0  0  0  0  0  0  0  0  0
   60.2099   37.8874    1.5450 C   0  0  0  0  0  0  0  0  0  0  0  0
   61.3055   38.5501    1.9758 F   0  0  0  0  0  0  0  0  0  0  0  0
   59.2722   37.3563    2.4013 C   0  0  0  0  0  0  0  0  0  0  0  0
   55.3251   34.9215    6.6863 C   0  0  0  0  0  0  0  0  0  0  0  0
   55.4016   34.5992    8.0457 C   0  0  0  0  0  0  0  0  0  0  0  0
  1  2  1  0
  2  3  2  0
  3  4  1  0
  4  5  2  0
  5  6  1  0
  6  7  1  0
  7  8  2  0
  7  9  1  0
  9 10  1  0
 10 11  2  0
 11 12  1  0
 12 13  2  0
 13 14  1  0
 13 15  1  0
 15 16  1  0
 15 17  2  0
  5 18  1  0
 18 19  2  0
 19  2  1  0
 17 10  1  0
M  END
$$$$
