
     RDKit          3D

 15 16  0  0  0  0  0  0  0  0999 V2000
    0.3422   -8.9801  -63.1624 Cl  0  0  0  0  0  0  0  0  0  0  0  0
   -1.2708   -9.0516  -62.4468 C   0  0  0  0  0  0  0  0  0  0  0  0
   -1.7583   -7.7394  -61.9395 C   0  0  0  0  0  0  0  0  0  0  0  0
   -0.9624   -7.1367  -60.8061 C   0  0  0  0  0  0  0  0  0  0  0  0
   -1.9368   -5.8189  -60.1594 Cl  0  0  0  0  0  0  0  0  0  0  0  0
    0.3413   -6.6787  -61.3620 C   0  0  0  0  0  0  0  0  0  0  0  0
    0.8872   -5.4915  -61.2892 C   0  0  0  0  0  0  0  0  0  0  0  0
    0.3806   -4.2883  -60.6460 C   0  0  0  0  0  0  0  0  0  0  0  0
    0.3208   -4.0661  -59.3417 C   0  0  0  0  0  0  0  0  0  0  0  0
    0.1441   -3.5734  -57.9792 C   0  0  0  0  0  0  0  0  0  0  0  0
    0.7085   -4.7495  -58.2423 C   0  0  0  0  0  0  0  0  0  0  0  0
    1.3595   -6.0582  -58.0578 C   0  0  0  0  0  0  0  0  0  0  0  0
    0.3042   -7.0499  -58.0288 N   0  0  0  0  0  0  0  0  0  0  0  0
    0.4416   -7.8164  -59.1026 O   0  0  0  0  0  0  0  0  0  0  0  0
   -0.7705   -8.1545  -59.7183 C   0  0  0  0  0  0  0  0  0  0  0  0
  1  2  1  0
  2  3  1  0
  3  4  1  0
  4  5  1  0
  4  6  1  0
  6  7  2  0
  7  8  1  0
  8  9  2  0
  9 10  1  0
 10 11  2  0
 11 12  1  0
 12 13  1  0
 13 14  1  0
 14 15  1  0
 15  4  1  0
 11  9  1  0
M  END
$$$$
