
     RDKit          3D

  6  6  0  0  0  0  0  0  0  0999 V2000
  139.2811  144.3141  155.2355 Cl  0  0  0  0  0  0  0  0  0  0  0  0
  138.2923  142.9003  155.3627 C   0  0  0  0  0  0  0  0  0  0  0  0
  137.1135  142.7186  154.8462 C   0  0  0  0  0  0  0  0  0  0  0  0
  136.6509  141.5193  155.1445 C   0  0  0  0  0  3  0  0  0  0  0  0
  137.6057  140.8097  155.9437 C   0  0  0  0  0  0  0  0  0  0  0  0
  138.6053  141.6607  156.0722 C   0  0  0  0  0  0  0  0  0  0  0  0
  1  2  1  0
  2  3  2  0
  3  4  2  0
  4  5  1  0
  5  6  2  0
  6  2  1  0
M  CHG  1   4   1
M  END
$$$$
