
     RDKit          3D

 26 28  0  0  0  0  0  0  0  0999 V2000
  150.6323  146.8038  141.6820 C   0  0  0  0  0  0  0  0  0  0  0  0
  150.4879  147.6133  142.9406 C   0  0  0  0  0  0  0  0  0  0  0  0
  149.4824  147.5461  143.8761 C   0  0  0  0  0  0  0  0  0  0  0  0
  148.3579  146.5738  143.6896 C   0  0  0  0  0  0  0  0  0  0  0  0
  148.0555  145.6406  144.6543 C   0  0  0  0  0  0  0  0  0  0  0  0
  147.0145  144.7406  144.4855 C   0  0  0  0  0  0  0  0  0  0  0  0
  146.2503  144.7580  143.3386 C   0  0  0  0  0  0  0  0  0  0  0  0
  146.5475  145.6897  142.3685 C   0  0  0  0  0  0  0  0  0  0  0  0
  147.5911  146.5856  142.5475 C   0  0  0  0  0  0  0  0  0  0  0  0
  149.5776  148.3604  144.8986 N   0  0  0  0  0  0  0  0  0  0  0  0
  150.5977  149.1872  144.9928 C   0  0  0  0  0  0  0  0  0  0  0  0
  150.8766  150.1538  146.0373 N   0  0  0  0  0  0  0  0  0  0  0  0
  151.9984  150.9927  145.9889 C   0  0  0  0  0  0  0  0  0  0  0  0
  152.5392  151.2684  144.9083 O   0  0  0  0  0  0  0  0  0  0  0  0
  152.5183  151.5383  147.2543 C   0  0  0  0  0  0  0  0  0  0  0  0
  152.1027  153.2136  147.5628 S   0  0  0  0  0  6  0  0  0  0  0  0
  152.7977  153.7490  148.7919 O   0  0  0  0  0  0  0  0  0  0  0  0
  150.6305  153.3911  147.7883 O   0  0  0  0  0  0  0  0  0  0  0  0
  152.5517  154.1752  146.1671 C   0  0  0  0  0  0  0  0  0  0  0  0
  153.8841  154.6008  146.1369 C   0  0  0  0  0  0  0  0  0  0  0  0
  154.3423  155.3456  145.0926 C   0  0  0  0  0  0  0  0  0  0  0  0
  153.4686  155.6699  144.0702 C   0  0  0  0  0  0  0  0  0  0  0  0
  154.0973  156.7093  142.6078 Br  0  0  0  0  0  0  0  0  0  0  0  0
  152.1718  155.2551  144.1001 C   0  0  0  0  0  0  0  0  0  0  0  0
  151.7065  154.5016  145.1553 C   0  0  0  0  0  0  0  0  0  0  0  0
  151.4942  148.8298  143.5847 S   0  0  0  0  0  0  0  0  0  0  0  0
  1  2  1  0
  2  3  2  0
  3  4  1  0
  4  5  2  0
  5  6  1  0
  6  7  2  0
  7  8  1  0
  8  9  2  0
  3 10  1  0
 10 11  2  0
 11 12  1  0
 12 13  1  0
 13 14  2  0
 13 15  1  0
 15 16  1  0
 16 17  2  0
 16 18  2  0
 16 19  1  0
 19 20  2  0
 20 21  1  0
 21 22  2  0
 22 23  1  0
 22 24  1  0
 24 25  2  0
 11 26  1  0
 26  2  1  0
  9  4  1  0
 25 19  1  0
M  END
$$$$
