
     RDKit          3D

 26 28  0  0  0  0  0  0  0  0999 V2000
  153.2619  153.4277  145.3245 C   0  0  0  0  0  0  0  0  0  0  0  0
  152.6091  153.0473  146.6242 C   0  0  0  0  0  0  0  0  0  0  0  0
  152.0576  151.8356  146.9683 C   0  0  0  0  0  0  0  0  0  0  0  0
  152.0692  150.7074  145.9827 C   0  0  0  0  0  0  0  0  0  0  0  0
  153.1714  150.4581  145.1980 C   0  0  0  0  0  0  0  0  0  0  0  0
  153.1859  149.4137  144.2862 C   0  0  0  0  0  0  0  0  0  0  0  0
  152.0885  148.5926  144.1415 C   0  0  0  0  0  0  0  0  0  0  0  0
  150.9814  148.8364  144.9240 C   0  0  0  0  0  0  0  0  0  0  0  0
  150.9773  149.8839  145.8332 C   0  0  0  0  0  0  0  0  0  0  0  0
  151.5442  151.7456  148.1707 N   0  0  0  0  0  0  0  0  0  0  0  0
  151.5724  152.7825  148.9813 C   0  0  0  0  0  0  0  0  0  0  0  0
  151.0616  152.8781  150.3351 N   0  0  0  0  0  0  0  0  0  0  0  0
  151.3336  153.9839  151.1524 C   0  0  0  0  0  0  0  0  0  0  0  0
  152.0015  154.9380  150.7285 O   0  0  0  0  0  0  0  0  0  0  0  0
  150.8056  153.9836  152.5274 C   0  0  0  0  0  0  0  0  0  0  0  0
  150.8530  155.5379  153.3374 S   0  0  0  0  0  6  0  0  0  0  0  0
  151.7890  155.5269  154.5225 O   0  0  0  0  0  0  0  0  0  0  0  0
  149.5042  155.9378  153.8573 O   0  0  0  0  0  0  0  0  0  0  0  0
  151.3701  156.7593  152.1906 C   0  0  0  0  0  0  0  0  0  0  0  0
  150.4830  157.0051  151.1372 C   0  0  0  0  0  0  0  0  0  0  0  0
  150.7811  157.9418  150.1943 C   0  0  0  0  0  0  0  0  0  0  0  0
  151.9709  158.6396  150.2999 C   0  0  0  0  0  0  0  0  0  0  0  0
  152.3974  159.9492  148.9894 Br  0  0  0  0  0  0  0  0  0  0  0  0
  152.8339  158.4000  151.3257 C   0  0  0  0  0  0  0  0  0  0  0  0
  152.5342  157.4532  152.2803 C   0  0  0  0  0  0  0  0  0  0  0  0
  152.3562  153.9688  148.0365 S   0  0  0  0  0  0  0  0  0  0  0  0
  1  2  1  0
  2  3  2  0
  3  4  1  0
  4  5  2  0
  5  6  1  0
  6  7  2  0
  7  8  1  0
  8  9  2  0
  3 10  1  0
 10 11  2  0
 11 12  1  0
 12 13  1  0
 13 14  2  0
 13 15  1  0
 15 16  1  0
 16 17  2  0
 16 18  2  0
 16 19  1  0
 19 20  2  0
 20 21  1  0
 21 22  2  0
 22 23  1  0
 22 24  1  0
 24 25  2  0
 11 26  1  0
 26  2  1  0
  9  4  1  0
 25 19  1  0
M  END
$$$$
