
     RDKit          3D

 28 29  0  0  0  0  0  0  0  0999 V2000
   10.5766   42.7842   33.0367 C   0  0  0  0  0  0  0  0  0  0  0  0
   11.5796   43.1617   31.9975 C   0  0  0  0  0  0  0  0  0  0  0  0
   11.2571   43.3522   30.7416 C   0  0  0  0  0  0  0  0  0  0  0  0
   12.2530   43.6675   29.6877 C   0  0  0  0  0  0  0  0  0  0  0  0
   12.9512   42.1839   29.0034 Cl  0  0  0  0  0  0  0  0  0  0  0  0
   11.6515   44.4660   28.5733 C   0  0  0  0  0  0  0  0  0  0  0  0
   11.4471   43.7930   27.2669 C   0  0  0  0  0  0  0  0  0  0  0  0
   11.3060   45.7262   28.7294 C   0  0  0  0  0  0  0  0  0  0  0  0
   10.5653   46.4590   27.7151 C   0  0  0  0  0  0  0  0  0  0  0  0
   11.1109   47.3762   26.9502 C   0  0  0  0  0  0  0  0  0  0  0  0
   12.3532   47.2176   26.2838 N   0  0  0  0  0  0  0  0  0  0  0  0
   13.6306   47.4315   26.9785 C   0  0  0  0  0  0  0  0  0  0  0  0
   14.1936   48.7609   26.8385 C   0  0  0  0  0  0  0  0  0  0  0  0
   15.0744   49.2758   26.0227 C   0  0  0  0  0  0  0  0  0  0  0  0
   15.8485   48.7395   24.9189 C   0  0  0  0  0  0  0  0  0  0  0  0
   17.2840   48.3241   25.1523 C   0  0  0  0  0  0  0  0  0  0  0  0
   15.4917   48.6187   23.6822 C   0  0  0  0  0  0  0  0  0  0  0  0
   15.0056   47.6724   23.0279 N   0  0  0  0  0  0  0  0  0  0  0  0
   13.6174   47.4559   23.1677 C   0  0  0  0  0  0  0  0  0  0  0  0
   12.8403   46.7416   22.1437 C   0  0  0  0  0  0  0  0  0  0  0  0
   11.5004   46.4293   22.7797 C   0  0  0  0  0  0  0  0  0  0  0  0
   10.5210   45.7948   21.9909 N   0  0  0  0  0  0  0  0  0  0  0  0
   10.6235   45.7912   20.5452 C   0  0  0  0  0  0  0  0  0  0  0  0
   10.6543   44.3278   20.1268 C   0  0  0  0  0  0  0  0  0  0  0  0
   11.9581   43.8465   20.3845 O   0  0  0  0  0  0  0  0  0  0  0  0
   11.2520   46.7461   24.0384 N   0  0  0  0  0  0  0  0  0  0  0  0
   12.3320   46.8538   24.9354 C   0  0  0  0  0  0  0  0  0  0  0  0
   13.4940   46.6151   24.3942 N   0  0  0  0  0  0  0  0  0  0  0  0
  1  2  1  0
  2  3  2  3
  3  4  1  0
  4  5  1  0
  4  6  1  0
  6  7  1  0
  6  8  2  3
  8  9  1  0
  9 10  2  3
 10 11  1  0
 11 12  1  0
 12 13  1  0
 13 14  2  0
 14 15  1  0
 15 16  1  0
 15 17  2  0
 17 18  2  0
 18 19  1  0
 19 20  1  0
 20 21  1  0
 21 22  1  0
 22 23  1  0
 23 24  1  0
 24 25  1  0
 21 26  2  0
 26 27  1  0
 27 28  2  0
 27 11  1  0
 28 19  1  0
M  END
$$$$
