
     RDKit          3D

 28 29  0  0  0  0  0  0  0  0999 V2000
   -6.2067   33.3186    6.4837 C   0  0  0  0  0  0  0  0  0  0  0  0
   -6.0090   32.0549    7.2534 C   0  0  0  0  0  0  0  0  0  0  0  0
   -6.1762   31.9855    8.5514 C   0  0  0  0  0  0  0  0  0  0  0  0
   -6.0431   30.7230    9.3197 C   0  0  0  0  0  0  0  0  0  0  0  0
   -5.3422   31.0223   10.9248 Cl  0  0  0  0  0  0  0  0  0  0  0  0
   -7.3620   30.0377    9.4988 C   0  0  0  0  0  0  0  0  0  0  0  0
   -8.5033   30.4982    8.6701 C   0  0  0  0  0  0  0  0  0  0  0  0
   -7.5227   29.0537   10.3576 C   0  0  0  0  0  0  0  0  0  0  0  0
   -6.4561   28.1170   10.6730 C   0  0  0  0  0  0  0  0  0  0  0  0
   -6.6768   26.8883   11.0798 C   0  0  0  0  0  0  0  0  0  0  0  0
   -6.3738   25.7325   10.3149 N   0  0  0  0  0  0  0  0  0  0  0  0
   -7.1902   25.3416    9.1570 C   0  0  0  0  0  0  0  0  0  0  0  0
   -8.2371   24.3777    9.4379 C   0  0  0  0  0  0  0  0  0  0  0  0
   -8.3006   23.0764    9.3447 C   0  0  0  0  0  0  0  0  0  0  0  0
   -7.3555   22.0564    8.9300 C   0  0  0  0  0  0  0  0  0  0  0  0
   -7.4333   21.4998    7.5257 C   0  0  0  0  0  0  0  0  0  0  0  0
   -6.4487   21.4750    9.6447 C   0  0  0  0  0  0  0  0  0  0  0  0
   -5.2314   21.6967    9.8153 N   0  0  0  0  0  0  0  0  0  0  0  0
   -4.8985   22.7285   10.7198 C   0  0  0  0  0  0  0  0  0  0  0  0
   -3.5848   22.7838   11.3784 C   0  0  0  0  0  0  0  0  0  0  0  0
   -3.4869   24.1637   11.9978 C   0  0  0  0  0  0  0  0  0  0  0  0
   -2.3410   24.4730   12.7564 N   0  0  0  0  0  0  0  0  0  0  0  0
   -2.2131   24.0126   14.1247 C   0  0  0  0  0  0  0  0  0  0  0  0
   -2.3854   25.2439   15.0033 C   0  0  0  0  0  0  0  0  0  0  0  0
   -2.2244   26.3761   14.1726 O   0  0  0  0  0  0  0  0  0  0  0  0
   -4.4501   25.0540   11.8367 N   0  0  0  0  0  0  0  0  0  0  0  0
   -5.2712   24.9645   10.6964 C   0  0  0  0  0  0  0  0  0  0  0  0
   -4.9675   23.9753    9.9031 N   0  0  0  0  0  0  0  0  0  0  0  0
  1  2  1  0
  2  3  2  3
  3  4  1  0
  4  5  1  0
  4  6  1  0
  6  7  1  0
  6  8  2  3
  8  9  1  0
  9 10  2  3
 10 11  1  0
 11 12  1  0
 12 13  1  0
 13 14  2  0
 14 15  1  0
 15 16  1  0
 15 17  2  0
 17 18  2  0
 18 19  1  0
 19 20  1  0
 20 21  1  0
 21 22  1  0
 22 23  1  0
 23 24  1  0
 24 25  1  0
 21 26  2  0
 26 27  1  0
 27 28  2  0
 27 11  1  0
 28 19  1  0
M  END
$$$$
