
     RDKit          3D

 21 22  0  0  0  0  0  0  0  0999 V2000
  150.6348  146.7658  138.2227 C   0  0  0  0  0  0  0  0  0  0  0  0
  149.2116  146.9270  138.3827 N   0  0  0  0  0  0  0  0  0  0  0  0
  148.4758  146.2476  137.3235 C   0  0  0  0  0  0  0  0  0  0  0  0
  148.7105  146.5840  139.6766 C   0  0  0  0  0  0  0  0  0  0  0  0
  149.2823  147.3844  140.7711 C   0  0  0  0  0  0  0  0  0  0  0  0
  150.2878  146.7961  141.5488 C   0  0  0  0  0  0  0  0  0  0  0  0
  150.8732  147.4899  142.5825 C   0  0  0  0  0  0  0  0  0  0  0  0
  150.4570  148.7691  142.8414 C   0  0  0  0  0  0  0  0  0  0  0  0
  151.0429  149.5707  143.9357 C   0  0  0  0  0  0  0  0  0  0  0  0
  152.4620  149.6953  143.8658 N   0  0  0  0  0  0  0  0  0  0  0  0
  153.1014  150.4062  144.9125 C   0  0  0  0  0  0  0  0  0  0  0  0
  154.5664  150.5388  144.6947 C   0  0  2  0  0  0  0  0  0  0  0  0
  155.1712  149.2751  144.4885 O   0  0  0  0  0  0  0  0  0  0  0  0
  155.2572  151.2155  145.8185 C   0  0  0  0  0  0  0  0  0  0  0  0
  154.6434  152.1367  146.6006 C   0  0  0  0  0  0  0  0  0  0  0  0
  155.3823  152.7311  147.6321 C   0  0  0  0  0  0  0  0  0  0  0  0
  156.6852  152.3918  147.8446 C   0  0  0  0  0  0  0  0  0  0  0  0
  157.2747  151.4533  147.0317 C   0  0  0  0  0  0  0  0  0  0  0  0
  156.5732  150.8598  146.0181 C   0  0  0  0  0  0  0  0  0  0  0  0
  149.4677  149.3471  142.0764 C   0  0  0  0  0  0  0  0  0  0  0  0
  148.8736  148.6553  141.0341 C   0  0  0  0  0  0  0  0  0  0  0  0
  1  2  1  0
  2  3  1  0
  2  4  1  0
  4  5  1  0
  5  6  2  0
  6  7  1  0
  7  8  2  0
  8  9  1  0
  9 10  1  0
 10 11  1  0
 11 12  1  0
 12 13  1  1
 12 14  1  0
 14 15  2  0
 15 16  1  0
 16 17  2  0
 17 18  1  0
 18 19  2  0
  8 20  1  0
 20 21  2  0
 21  5  1  0
 19 14  1  0
M  END
$$$$
