
     RDKit          3D

 24 25  0  0  0  0  0  0  0  0999 V2000
   33.5875   13.8093   -0.3638 P   0  0  0  0  0  1  0  0  0  0  0  0
   34.1947   12.3149    0.5067 C   0  0  0  0  0  0  0  0  0  0  0  0
   35.5635   12.0787    0.1466 N   0  0  0  0  0  0  0  0  0  0  0  0
   36.2871   11.0037    0.7053 C   0  0  0  0  0  0  0  0  0  0  0  0
   37.9187   10.8806    0.5857 S   0  0  0  0  0  3  0  0  0  0  0  0
   38.8956   12.3369    0.8751 N   0  0  0  0  0  0  0  0  0  0  0  0
   40.1255   12.3232    1.5707 C   0  0  0  0  0  0  0  0  0  0  0  0
   40.2424   13.0028    2.6351 N   0  0  0  0  0  0  0  0  0  0  0  0
   41.1739   12.8026    3.6675 C   0  0  0  0  0  0  0  0  0  0  0  0
   42.5298   13.0463    3.4494 C   0  0  0  0  0  0  0  0  0  0  0  0
   43.4712   12.8662    4.4287 C   0  0  0  0  0  0  0  0  0  0  0  0
   43.0629   12.4274    5.6771 C   0  0  0  0  0  0  0  0  0  0  0  0
   41.7375   12.1899    5.8879 C   0  0  0  0  0  0  0  0  0  0  0  0
   40.7795   12.3642    4.9204 C   0  0  0  0  0  0  0  0  0  0  0  0
   41.2426   11.5937    1.1508 O   0  0  0  0  0  0  0  0  0  0  0  0
   41.3158   11.0371   -0.0994 N   0  0  0  0  0  0  0  0  0  0  0  0
   42.3920   10.1800   -0.4315 C   0  0  0  0  0  0  0  0  0  0  0  0
   42.4677    9.4886   -1.6208 C   0  0  0  0  0  0  0  0  0  0  0  0
   43.5313    8.6593   -1.9177 C   0  0  0  0  0  0  0  0  0  0  0  0
   44.5541    8.5077   -1.0098 C   0  0  0  0  0  0  0  0  0  0  0  0
   45.8866    7.4531   -1.4105 Cl  0  0  0  0  0  0  0  0  0  0  0  0
   44.4911    9.1911    0.1797 C   0  0  0  0  0  0  0  0  0  0  0  0
   45.8101    8.9740    1.3093 Cl  0  0  0  0  0  0  0  0  0  0  0  0
   43.4180   10.0230    0.4704 C   0  0  0  0  0  0  0  0  0  0  0  0
  1  2  1  0
  2  3  1  0
  3  4  1  0
  4  5  2  3
  5  6  1  0
  6  7  1  0
  7  8  2  3
  8  9  1  0
  9 10  2  0
 10 11  1  0
 11 12  2  0
 12 13  1  0
 13 14  2  0
  7 15  1  0
 15 16  1  0
 16 17  1  0
 17 18  2  0
 18 19  1  0
 19 20  2  0
 20 21  1  0
 20 22  1  0
 22 23  1  0
 22 24  2  0
 14  9  1  0
 24 17  1  0
M  CHG  2   1  -1   5  -1
M  RAD  1   1   2
M  END
$$$$
