
     RDKit          3D

 21 23  0  0  0  0  0  0  0  0999 V2000
   45.7524   62.9149    8.6509 O   0  0  0  0  0  0  0  0  0  0  0  0
   45.7729   63.5284    9.9184 C   0  0  0  0  0  0  0  0  0  0  0  0
   45.6196   62.4215   10.9714 C   0  0  0  0  0  0  0  0  0  0  0  0
   46.5828   61.3895   10.8105 N   0  0  0  0  0  0  0  0  0  0  0  0
   46.1717   60.0529   11.0580 C   0  0  0  0  0  0  0  0  0  0  0  0
   47.3487   59.1844   10.6841 C   0  0  0  0  0  0  0  0  0  0  0  0
   48.0394   59.1431    9.4401 N   0  0  0  0  0  0  0  0  0  0  0  0
   48.3718   60.3076    8.6968 C   0  0  0  0  0  0  0  0  0  0  0  0
   49.0042   60.2829    7.5365 C   0  0  0  0  0  0  0  0  0  0  0  0
   49.3795   58.9845    6.9957 C   0  0  0  0  0  0  0  0  0  0  0  0
   49.1011   57.8644    7.6389 C   0  0  0  0  0  0  0  0  0  0  0  0
   49.5602   56.3027    6.9729 Cl  0  0  0  0  0  0  0  0  0  0  0  0
   48.4041   57.8606    8.9368 C   0  0  0  0  0  0  0  0  0  0  0  0
   46.9799   56.7945    8.7966 Cl  0  0  0  0  0  0  0  0  0  0  0  0
   47.6488   58.4555   11.6934 N   0  0  0  0  0  0  0  0  0  0  0  0
   46.7687   58.7190   12.8072 C   0  0  0  0  0  0  0  0  0  0  0  0
   46.7430   58.1549   14.0685 C   0  0  0  0  0  0  0  0  0  0  0  0
   45.8024   58.5640   14.9610 C   0  0  0  0  0  0  0  0  0  0  0  0
   44.8844   59.5283   14.6179 C   0  0  0  0  0  0  0  0  0  0  0  0
   44.9241   60.0871   13.3421 C   0  0  0  0  0  0  0  0  0  0  0  0
   45.8650   59.6872   12.4297 C   0  0  0  0  0  0  0  0  0  0  0  0
  1  2  1  0
  2  3  1  0
  3  4  1  0
  4  5  1  0
  5  6  1  0
  6  7  1  0
  7  8  1  0
  8  9  2  0
  9 10  1  0
 10 11  2  0
 11 12  1  0
 11 13  1  0
 13 14  1  0
  6 15  2  0
 15 16  1  0
 16 17  2  0
 17 18  1  0
 18 19  2  0
 19 20  1  0
 20 21  2  0
 21  5  1  0
 13  7  1  0
 21 16  1  0
M  END
$$$$
