
     RDKit          3D

 21 22  0  0  0  0  0  0  0  0999 V2000
  153.7268  149.2027  141.3458 C   0  0  0  0  0  0  0  0  0  0  0  0
  152.4119  149.8657  141.6584 C   0  0  0  0  0  0  0  0  0  0  0  0
  152.6022  151.1381  142.4606 C   0  0  0  0  0  0  0  0  0  0  0  0
  151.4045  151.9216  142.4267 N   0  0  0  0  0  0  0  0  0  0  0  0
  153.0842  150.8383  143.8629 C   0  0  0  0  0  0  0  0  0  0  0  0
  153.2733  152.0042  144.6558 N   0  0  0  0  0  0  0  0  0  0  0  0
  153.6585  151.7598  146.0175 C   0  0  0  0  0  0  0  0  0  0  0  0
  152.9823  152.5936  146.9984 C   0  0  0  0  0  0  0  0  0  0  0  0
  153.6396  153.5579  147.7078 C   0  0  0  0  0  0  0  0  0  0  0  0
  152.9835  154.3530  148.6574 C   0  0  0  0  0  0  0  0  0  0  0  0
  151.6549  154.1895  148.9073 C   0  0  0  0  0  0  0  0  0  0  0  0
  150.7989  155.1639  150.0882 Cl  0  0  0  0  0  0  0  0  0  0  0  0
  150.9599  153.2124  148.1970 C   0  0  0  0  0  0  0  0  0  0  0  0
  151.6284  152.4452  147.2701 C   0  0  0  0  0  0  0  0  0  0  0  0
  155.1386  151.7608  146.0922 C   0  0  0  0  0  0  0  0  0  0  0  0
  155.8747  152.8317  145.5631 C   0  0  0  0  0  0  0  0  0  0  0  0
  157.2433  152.8796  145.5923 C   0  0  0  0  0  0  0  0  0  0  0  0
  157.9123  151.8213  146.1704 C   0  0  0  0  0  0  0  0  0  0  0  0
  157.1911  150.7697  146.6904 C   0  0  0  0  0  0  0  0  0  0  0  0
  155.8018  150.7054  146.6693 C   0  0  0  0  0  0  0  0  0  0  0  0
  155.1641  149.6233  147.2213 F   0  0  0  0  0  0  0  0  0  0  0  0
  1  2  1  0
  2  3  1  0
  3  4  1  0
  3  5  1  0
  5  6  1  0
  6  7  1  0
  7  8  1  0
  8  9  2  0
  9 10  1  0
 10 11  2  0
 11 12  1  0
 11 13  1  0
 13 14  2  0
  7 15  1  0
 15 16  2  0
 16 17  1  0
 17 18  2  0
 18 19  1  0
 19 20  2  0
 20 21  1  0
 14  8  1  0
 20 15  1  0
M  END
$$$$
