
     RDKit          3D

 26 28  0  0  0  0  0  0  0  0999 V2000
  128.1911  137.8658  142.9569 C   0  0  0  0  0  0  0  0  0  0  0  0
  128.1094  138.6615  143.9839 C   0  0  0  0  0  0  0  0  0  0  0  0
  126.9457  138.3020  144.9240 N   0  0  0  0  0  0  0  0  0  0  0  0
  126.8627  138.9788  146.0136 C   0  0  0  0  0  0  0  0  0  0  0  0
  126.3545  139.2705  147.1400 N   0  0  0  0  0  0  0  0  0  0  0  0
  126.5977  140.0414  148.0755 C   0  0  0  0  0  0  0  0  0  0  0  0
  127.8069  140.8538  148.0424 C   0  0  0  0  0  0  0  0  0  0  0  0
  127.9611  141.0668  146.6916 C   0  0  0  0  0  0  0  0  0  0  0  0
  127.8898  142.3393  146.1333 C   0  0  0  0  0  0  0  0  0  0  0  0
  127.5795  143.4272  147.0736 C   0  0  0  0  0  0  0  0  0  0  0  0
  127.4117  143.2670  148.4320 C   0  0  0  0  0  0  0  0  0  0  0  0
  127.0440  144.3374  149.3199 C   0  0  0  0  0  0  0  0  0  0  0  0
  126.0856  144.1729  150.2827 C   0  0  0  0  0  0  0  0  0  0  0  0
  125.6301  144.9970  151.2263 C   0  0  0  0  0  0  0  0  0  0  0  0
  126.2856  146.4018  151.2831 C   0  0  0  0  0  0  0  0  0  0  0  0
  125.7765  147.4745  152.4801 Cl  0  0  0  0  0  0  0  0  0  0  0  0
  127.2105  146.4424  150.3098 C   0  0  0  0  0  0  0  0  0  0  0  0
  127.6699  145.6062  149.3636 C   0  0  0  0  0  0  0  0  0  0  0  0
  128.0908  142.0356  148.9034 C   0  0  0  0  0  0  0  0  0  0  0  0
  129.0818  141.8987  149.5998 C   0  0  0  0  0  0  0  0  0  0  0  0
  130.1420  141.6665  150.5263 C   0  0  0  0  0  0  0  0  0  0  0  0
  129.7957  141.9514  151.8517 C   0  0  0  0  0  0  0  0  0  0  0  0
  130.9666  141.3929  152.7481 C   0  0  0  0  0  0  0  0  0  0  0  0
  131.9048  140.9593  153.4829 C   0  0  0  0  0  0  0  0  0  0  0  0
  133.1093  140.4011  154.3922 Cl  0  0  0  0  0  0  0  0  0  0  0  0
  128.1237  140.0638  145.6319 O   0  0  0  0  0  0  0  0  0  0  0  0
  1  2  2  0
  2  3  1  0
  3  4  2  3
  4  5  1  0
  5  6  2  0
  6  7  1  0
  7  8  1  0
  8  9  2  0
  9 10  1  0
 10 11  2  0
 11 12  1  0
 12 13  2  0
 13 14  1  0
 14 15  2  0
 15 16  1  0
 15 17  1  0
 17 18  2  0
 11 19  1  0
 19 20  2  3
 20 21  1  0
 21 22  2  3
 22 23  1  0
 23 24  3  0
 24 25  1  0
  8 26  1  0
 26  4  1  0
 19  7  1  0
 18 12  1  0
M  END
$$$$
