
     RDKit          3D

 23 25  0  0  0  0  0  0  0  0999 V2000
   19.1326   25.6426   29.0826 C   0  0  0  0  0  0  0  0  0  0  0  0
   18.3620   24.5481   28.6372 O   0  0  0  0  0  0  0  0  0  0  0  0
   17.3318   25.0891   27.8784 C   0  0  0  0  0  0  0  0  0  0  0  0
   16.3325   24.0784   27.4258 C   0  0  0  0  0  0  0  0  0  0  0  0
   16.8022   23.1107   26.5053 N   0  0  2  0  0  4  0  0  0  0  0  0
   16.1016   23.0553   25.2555 C   0  0  0  0  0  0  0  0  0  0  0  0
   16.9060   21.7763   27.1078 C   0  0  0  0  0  0  0  0  0  0  0  0
   18.2328   21.1703   26.7285 C   0  0  1  0  0  0  0  0  0  0  0  0
   19.2455   22.0664   27.1188 O   0  0  0  0  0  0  0  0  0  0  0  0
   18.5148   19.8691   27.3831 C   0  0  0  0  0  0  0  0  0  0  0  0
   19.8918   19.5226   27.5085 N   0  0  0  0  0  0  0  0  0  0  0  0
   20.6867   19.0065   26.5588 C   0  0  0  0  0  0  0  0  0  0  0  0
   20.4891   18.6510   25.2357 C   0  0  0  0  0  0  0  0  0  0  0  0
   21.5190   18.1311   24.4848 C   0  0  0  0  0  0  0  0  0  0  0  0
   22.7846   17.9414   25.0101 C   0  0  0  0  0  0  0  0  0  0  0  0
   22.9946   18.2902   26.3230 C   0  0  0  0  0  0  0  0  0  0  0  0
   21.9628   18.8086   27.0672 C   0  0  0  0  0  0  0  0  0  0  0  0
   21.9237   19.2245   28.3728 C   0  0  0  0  0  0  0  0  0  0  0  0
   22.9085   19.2530   29.3472 C   0  0  0  0  0  0  0  0  0  0  0  0
   22.5906   19.7310   30.6005 C   0  0  0  0  0  0  0  0  0  0  0  0
   21.3092   20.1674   30.8557 C   0  0  0  0  0  0  0  0  0  0  0  0
   20.3484   20.1288   29.8703 C   0  0  0  0  0  0  0  0  0  0  0  0
   20.6414   19.6552   28.6091 C   0  0  0  0  0  0  0  0  0  0  0  0
  1  2  1  0
  2  3  1  0
  3  4  1  0
  4  5  1  0
  5  6  1  6
  5  7  1  0
  7  8  1  0
  8  9  1  1
  8 10  1  0
 10 11  1  0
 11 12  1  0
 12 13  2  0
 13 14  1  0
 14 15  2  0
 15 16  1  0
 16 17  2  0
 17 18  1  0
 18 19  2  0
 19 20  1  0
 20 21  2  0
 21 22  1  0
 22 23  2  0
 23 11  1  0
 17 12  1  0
 23 18  1  0
M  CHG  1   5   1
M  END
$$$$
