
     RDKit          3D

 23 22  0  0  0  0  0  0  0  0999 V2000
   17.9874  -21.2238  -23.5219 C   0  0  0  0  0  0  0  0  0  0  0  0
   17.2020  -22.3111  -23.5177 C   0  0  0  0  0  0  0  0  0  0  0  0
   16.9900  -23.0710  -24.7338 N   0  0  0  0  0  0  0  0  0  0  0  0
   16.2204  -24.2642  -24.6576 C   0  0  0  0  0  0  0  0  0  0  0  0
   16.8092  -25.4224  -23.8631 C   0  0  0  0  0  0  0  0  0  0  0  0
   17.2570  -24.9904  -22.5347 N   0  0  0  0  0  0  0  0  0  0  0  0
   18.4984  -24.7836  -22.3382 C   0  0  0  0  0  0  0  0  0  0  0  0
   18.9116  -23.4618  -21.8645 N   0  0  0  0  0  0  0  0  0  0  0  0
   20.4007  -23.4592  -21.6798 C   0  0  0  0  0  0  0  0  0  0  0  0
   21.1536  -23.1950  -22.8458 C   0  0  0  0  0  0  0  0  0  0  0  0
   22.3621  -23.1193  -23.1835 C   0  0  0  0  0  0  0  0  0  0  0  0
   22.8728  -22.9107  -24.5684 C   0  0  0  0  0  0  0  0  0  0  0  0
   23.2962  -22.7514  -25.7013 C   0  0  0  0  0  0  0  0  0  0  0  0
   23.7591  -22.5898  -26.9699 F   0  0  0  0  0  0  0  0  0  0  0  0
   15.9930  -24.7980  -26.0801 C   0  0  0  0  0  0  0  0  0  0  0  0
   17.0542  -25.3494  -26.7197 O   0  0  0  0  0  0  0  0  0  0  0  0
   16.5257  -25.7902  -28.0295 C   0  0  0  0  0  0  0  0  0  0  0  0
   17.6024  -26.4518  -28.7847 C   0  0  0  0  0  0  0  0  0  0  0  0
   18.9253  -25.8414  -28.9734 C   0  0  0  0  0  0  0  0  0  0  0  0
   19.8946  -26.9370  -28.4231 C   0  0  0  0  0  0  0  0  0  0  0  0
   21.3380  -26.4480  -28.3502 C   0  0  0  0  0  0  0  0  0  0  0  0
   21.6336  -26.2698  -29.7842 N   0  0  0  0  0  0  0  0  0  0  0  0
   22.6600  -26.0070  -30.4063 C   0  0  0  0  0  0  0  0  0  0  0  0
  1  2  2  0
  2  3  1  0
  3  4  1  0
  4  5  1  0
  5  6  1  0
  6  7  2  3
  7  8  1  0
  8  9  1  0
  9 10  1  0
 10 11  2  3
 11 12  1  0
 12 13  3  0
 13 14  1  0
  4 15  1  0
 15 16  1  0
 16 17  1  0
 17 18  1  0
 18 19  1  0
 19 20  1  0
 20 21  1  0
 21 22  1  0
 22 23  2  0
M  END
$$$$
