
     RDKit          3D

 21 23  0  0  0  0  0  0  0  0999 V2000
    1.6389   32.8688   -4.0006 C   0  0  0  0  0  0  0  0  0  0  0  0
    2.0387   32.2655   -5.3140 C   0  0  0  0  0  0  0  0  0  0  0  0
    1.2343   31.3928   -5.9891 C   0  0  0  0  0  0  0  0  0  0  0  0
    1.6018   30.8250   -7.2162 C   0  0  0  0  0  0  0  0  0  0  0  0
    0.7251   29.9180   -7.8682 N   0  0  0  0  0  0  0  0  0  0  0  0
    0.9646   28.5195   -7.8857 C   0  0  0  0  0  0  0  0  0  0  0  0
    0.0610   27.7537   -8.3935 N   0  0  0  0  0  0  0  0  0  0  0  0
    0.2568   26.3756   -8.4570 C   0  0  0  0  0  0  0  0  0  0  0  0
    0.1196   25.1399   -8.9779 C   0  0  0  0  0  0  0  0  0  0  0  0
    1.3976   24.7952   -8.6024 C   0  0  0  0  0  0  0  0  0  0  0  0
    1.1674   25.6952   -7.4793 C   0  0  0  0  0  0  0  0  0  0  0  0
    2.1448   26.6559   -7.0096 C   0  0  0  0  0  0  0  0  0  0  0  0
    3.3010   26.1742   -6.3021 N   0  0  0  0  0  0  0  0  0  0  0  0
    4.2957   27.0947   -5.8542 C   0  0  0  0  0  0  0  0  0  0  0  0
    4.8490   26.7932   -4.4850 C   0  0  0  0  0  0  0  0  0  0  0  0
    5.2448   25.4381   -4.4996 O   0  0  0  0  0  0  0  0  0  0  0  0
    2.0413   27.9240   -7.1878 N   0  0  0  0  0  0  0  0  0  0  0  0
    2.8270   31.1980   -7.7061 C   0  0  0  0  0  0  0  0  0  0  0  0
    3.6608   32.0928   -7.0219 C   0  0  0  0  0  0  0  0  0  0  0  0
    3.2680   32.6321   -5.8182 C   0  0  0  0  0  0  0  0  0  0  0  0
    4.2912   33.7555   -4.9387 Cl  0  0  0  0  0  0  0  0  0  0  0  0
  1  2  1  0
  2  3  2  0
  3  4  1  0
  4  5  1  0
  5  6  1  0
  6  7  2  0
  7  8  1  0
  8  9  2  0
  9 10  2  0
 10 11  1  0
 11 12  1  0
 12 13  1  0
 13 14  1  0
 14 15  1  0
 15 16  1  0
 12 17  2  0
  4 18  2  0
 18 19  1  0
 19 20  2  0
 20 21  1  0
 20  2  1  0
 17  6  1  0
 11  8  1  0
M  END
$$$$
