
     RDKit          3D

 33 36  0  0  0  0  0  0  0  0999 V2000
  174.2442  144.9047  162.8119 C   0  0  0  0  0  0  0  0  0  0  0  0
  173.5801  143.7105  162.6586 O   0  0  0  0  0  0  0  0  0  0  0  0
  172.6854  143.6898  161.6100 C   0  0  0  0  0  0  0  0  0  0  0  0
  171.9543  142.3891  161.5845 C   0  0  0  0  0  0  0  0  0  0  0  0
  170.8907  142.4947  160.5678 N   0  0  0  0  0  0  0  0  0  0  0  0
  171.1662  142.2882  159.1992 C   0  0  0  0  0  0  0  0  0  0  0  0
  172.2912  141.7733  158.8740 O   0  0  0  0  0  0  0  0  0  0  0  0
  170.2398  142.6294  158.1420 C   0  0  0  0  0  0  0  0  0  0  0  0
  170.5130  142.6674  156.7680 C   0  0  0  0  0  0  0  0  0  0  0  0
  171.7657  142.3711  156.1886 N   0  0  0  0  0  0  0  0  0  0  0  0
  169.4042  143.0266  156.1031 N   0  0  0  0  0  0  0  0  0  0  0  0
  169.2700  143.1837  154.6477 C   0  0  0  0  0  0  0  0  0  0  0  0
  167.8586  142.8389  154.2281 C   0  0  0  0  0  0  0  0  0  0  0  0
  167.8092  141.9364  153.0782 C   0  0  0  0  0  0  0  0  0  0  0  0
  167.3222  140.6557  153.2141 C   0  0  0  0  0  0  0  0  0  0  0  0
  167.3037  139.8572  152.0932 C   0  0  0  0  0  0  0  0  0  0  0  0
  167.7565  140.3230  150.8785 C   0  0  0  0  0  0  0  0  0  0  0  0
  167.7343  139.5134  149.7573 O   0  0  0  0  0  0  0  0  0  0  0  0
  167.1976  138.2151  149.8025 C   0  0  0  0  0  0  0  0  0  0  0  0
  168.2521  141.6197  150.7302 C   0  0  0  0  0  0  0  0  0  0  0  0
  168.6985  142.0493  149.4880 O   0  0  0  0  0  0  0  0  0  0  0  0
  169.3902  143.2898  149.4309 C   0  0  0  0  0  0  0  0  0  0  0  0
  168.2667  142.4125  151.8585 C   0  0  0  0  0  0  0  0  0  0  0  0
  168.4397  143.2156  157.0246 C   0  0  0  0  0  0  0  0  0  0  0  0
  167.1467  143.5790  156.9226 N   0  0  0  0  0  0  0  0  0  0  0  0
  166.3489  143.7094  157.9989 C   0  0  0  0  0  0  0  0  0  0  0  0
  165.0269  144.0823  157.8762 C   0  0  0  0  0  0  0  0  0  0  0  0
  164.1929  144.2202  158.9817 C   0  0  0  0  0  0  0  0  0  0  0  0
  164.6685  143.9846  160.2569 C   0  0  0  0  0  0  0  0  0  0  0  0
  165.9919  143.6119  160.3724 C   0  0  0  0  0  0  0  0  0  0  0  0
  166.8218  143.4746  159.2735 C   0  0  0  0  0  0  0  0  0  0  0  0
  168.1092  143.1120  159.3855 N   0  0  0  0  0  0  0  0  0  0  0  0
  168.9201  142.9781  158.3075 C   0  0  0  0  0  0  0  0  0  0  0  0
  1  2  1  0
  2  3  1  0
  3  4  1  0
  4  5  1  0
  5  6  1  0
  6  7  2  0
  6  8  1  0
  8  9  2  0
  9 10  1  0
  9 11  1  0
 11 12  1  0
 12 13  1  0
 13 14  1  0
 14 15  2  0
 15 16  1  0
 16 17  2  0
 17 18  1  0
 18 19  1  0
 17 20  1  0
 20 21  1  0
 21 22  1  0
 20 23  2  0
 11 24  1  0
 24 25  2  0
 25 26  1  0
 26 27  2  0
 27 28  1  0
 28 29  2  0
 29 30  1  0
 30 31  2  0
 31 32  1  0
 32 33  2  0
 33  8  1  0
 23 14  1  0
 33 24  1  0
 31 26  1  0
M  END
$$$$
