
     RDKit          3D

 21 22  0  0  0  0  0  0  0  0999 V2000
  158.9261  151.4427  175.5788 C   0  0  0  0  0  0  0  0  0  0  0  0
  159.5828  151.2130  174.2567 C   0  0  0  0  0  0  0  0  0  0  0  0
  160.9166  151.5203  174.0524 C   0  0  0  0  0  0  0  0  0  0  0  0
  161.5171  151.3072  172.8334 C   0  0  0  0  0  0  0  0  0  0  0  0
  160.7673  150.7765  171.8010 C   0  0  0  0  0  0  0  0  0  0  0  0
  159.4365  150.4536  171.9530 C   0  0  0  0  0  0  0  0  0  0  0  0
  158.8701  150.6849  173.1997 C   0  0  0  0  0  0  0  0  0  0  0  0
  157.4518  150.3939  173.5340 C   0  0  0  0  0  0  0  0  0  0  0  0
  157.1614  148.9998  173.2643 N   0  0  0  0  0  0  0  0  0  0  0  0
  156.3536  148.2204  174.1326 C   0  0  0  0  0  0  0  0  0  0  0  0
  155.6499  148.7295  175.1160 C   0  0  0  0  0  0  0  0  0  0  0  0
  155.9820  148.4449  176.5056 C   0  0  0  0  0  0  0  0  0  0  0  0
  155.0223  148.4693  177.4009 C   0  0  0  0  0  0  0  0  0  0  0  0
  153.6678  148.5022  177.0027 N   0  0  0  0  0  0  0  0  0  0  0  0
  155.3812  148.4616  178.8370 C   0  0  0  0  0  0  0  0  0  0  0  0
  156.5561  149.7910  179.1292 Cl  0  0  0  0  0  0  0  0  0  0  0  0
  156.6370  151.1669  172.5957 N   0  0  0  0  0  0  0  0  0  0  0  0
  156.7014  151.1819  171.3283 C   0  0  0  0  0  0  0  0  0  0  0  0
  157.5477  150.4850  170.4314 N   0  0  0  0  0  0  0  0  0  0  0  0
  158.8425  149.8970  170.6975 C   0  0  0  0  0  0  0  0  0  0  0  0
  159.6838  150.3249  169.6445 O   0  0  0  0  0  0  0  0  0  0  0  0
  1  2  1  0
  2  3  2  0
  3  4  1  0
  4  5  2  0
  5  6  1  0
  6  7  2  0
  7  8  1  0
  8  9  1  0
  9 10  1  0
 10 11  2  3
 11 12  1  0
 12 13  2  3
 13 14  1  0
 13 15  1  0
 15 16  1  0
  8 17  1  0
 17 18  2  0
 18 19  1  0
 19 20  1  0
 20 21  1  0
  7  2  1  0
 20  6  1  0
M  END
$$$$
