
     RDKit          3D

 24 25  0  0  0  0  0  0  0  0999 V2000
  149.4498  156.5041  153.6893 C   0  0  0  0  0  0  0  0  0  0  0  0
  150.4090  156.1460  153.0494 C   0  0  0  0  0  0  0  0  0  0  0  0
  151.5947  157.6099  154.0616 Cl  0  0  0  0  0  0  0  0  0  0  0  0
  151.5310  155.7291  152.3031 C   0  0  0  0  0  0  0  0  0  0  0  0
  152.3416  156.7047  151.8036 C   0  0  0  0  0  0  0  0  0  0  0  0
  151.9082  154.3709  151.8887 C   0  0  0  0  0  0  0  0  0  0  0  0
  152.0211  154.3126  150.4292 C   0  0  0  0  0  0  0  0  0  0  0  0
  152.0945  154.2615  149.2244 C   0  0  0  0  0  0  0  0  0  0  0  0
  152.2057  154.1895  147.7778 C   0  0  0  0  0  0  0  0  0  0  0  0
  151.7030  152.8681  147.3011 C   0  0  0  0  0  0  0  0  0  0  0  0
  152.6478  152.1392  146.5104 N   0  0  0  0  0  0  0  0  0  0  0  0
  154.0132  152.2496  146.8435 N   0  0  0  0  0  0  0  0  0  0  0  0
  154.9625  151.6001  146.2497 C   0  0  0  0  0  0  0  0  0  0  0  0
  156.3222  151.7312  146.6003 N   0  0  0  0  0  0  0  0  0  0  0  0
  156.6987  152.7555  147.5447 C   0  0  0  0  0  0  0  0  0  0  0  0
  158.1991  152.9339  147.6848 C   0  0  0  0  0  0  0  0  0  0  0  0
  158.4287  153.8429  149.2229 Cl  0  0  0  0  0  0  0  0  0  0  0  0
  154.6122  150.6794  145.1503 C   0  0  0  0  0  0  0  0  0  0  0  0
  155.5736  149.9567  144.5009 C   0  0  0  0  0  0  0  0  0  0  0  0
  155.2369  149.0824  143.4866 C   0  0  0  0  0  0  0  0  0  0  0  0
  153.9388  148.9222  143.1088 C   0  0  0  0  0  0  0  0  0  0  0  0
  152.9623  149.6517  143.7631 C   0  0  0  0  0  0  0  0  0  0  0  0
  153.2800  150.5377  144.7881 C   0  0  0  0  0  0  0  0  0  0  0  0
  152.3107  151.2822  145.4877 N   0  0  0  0  0  0  0  0  0  0  0  0
  1  2  2  0
  2  3  1  0
  2  4  1  0
  4  5  2  0
  4  6  1  0
  6  7  1  0
  7  8  3  0
  8  9  1  0
  9 10  1  0
 10 11  1  0
 11 12  1  0
 12 13  2  0
 13 14  1  0
 14 15  1  0
 15 16  1  0
 16 17  1  0
 13 18  1  0
 18 19  2  0
 19 20  1  0
 20 21  2  0
 21 22  1  0
 22 23  2  0
 23 24  1  0
 24 11  1  0
 23 18  1  0
M  END
$$$$
