
     RDKit          3D

 24 25  0  0  0  0  0  0  0  0999 V2000
  126.1491  146.4238  147.2839 B   0  0  0  0  0  1  0  0  0  0  0  0
  126.7788  145.0386  147.6502 C   0  0  0  0  0  0  0  0  0  0  0  0
  127.1194  144.7855  148.8939 C   0  0  0  0  0  0  0  0  0  0  0  0
  126.9512  145.7421  149.9761 C   0  0  0  0  0  0  0  0  0  0  0  0
  127.3769  145.4891  151.2005 C   0  0  0  0  0  0  0  0  0  0  0  0
  128.1845  143.9682  151.5035 Cl  0  0  0  0  0  0  0  0  0  0  0  0
  127.1877  146.4397  152.2825 C   0  0  0  0  0  0  0  0  0  0  0  0
  126.6235  147.5965  152.0267 C   0  0  0  0  0  0  0  0  0  0  0  0
  127.5956  146.1413  153.5843 O   0  0  0  0  0  1  0  0  0  0  0  0
  126.9565  144.1001  146.5998 N   0  0  0  0  0  0  0  0  0  0  0  0
  127.1967  142.7015  146.8890 C   0  0  0  0  0  0  0  0  0  0  0  0
  127.0204  142.3616  148.0930 N   0  0  0  0  0  0  0  0  0  0  0  0
  127.1881  141.0662  148.6257 C   0  0  0  0  0  0  0  0  0  0  0  0
  126.9448  140.8902  149.9834 C   0  0  0  0  0  0  0  0  0  0  0  0
  127.1042  139.6310  150.5185 C   0  0  0  0  0  0  0  0  0  0  0  0
  127.4972  138.5731  149.7160 C   0  0  0  0  0  0  0  0  0  0  0  0
  127.7344  138.7541  148.3821 C   0  0  0  0  0  0  0  0  0  0  0  0
  127.5778  140.0104  147.8368 C   0  0  0  0  0  0  0  0  0  0  0  0
  127.8677  140.3260  146.1089 P   0  0  0  0  0  5  0  0  0  0  0  0
  126.9051  139.2832  145.0936 N   0  0  0  0  0  0  0  0  0  0  0  0
  127.2413  139.4252  143.6948 C   0  0  0  0  0  0  0  0  0  0  0  0
  128.2337  138.3080  143.3740 C   0  0  0  0  0  0  0  0  0  0  0  0
  127.6727  137.3823  142.5077 O   0  0  0  0  0  0  0  0  0  0  0  0
  127.5977  141.8496  145.8340 N   0  0  0  0  0  0  0  0  0  0  0  0
  1  2  1  0
  2  3  2  3
  3  4  1  0
  4  5  2  3
  5  6  1  0
  5  7  1  0
  7  8  2  0
  7  9  1  0
  2 10  1  0
 10 11  1  0
 11 12  2  0
 12 13  1  0
 13 14  2  0
 14 15  1  0
 15 16  2  0
 16 17  1  0
 17 18  2  0
 18 19  1  0
 19 20  1  0
 20 21  1  0
 21 22  1  0
 22 23  1  0
 19 24  2  0
 24 11  1  0
 18 13  1  0
M  CHG  2   1  -1   9  -1
M  RAD  1   1   2
M  END
$$$$
