
     RDKit          3D

 24 25  0  0  0  0  0  0  0  0999 V2000
  127.5776  137.0419  143.3271 B   0  0  0  0  0  1  0  0  0  0  0  0
  126.8984  137.0580  144.7371 C   0  0  0  0  0  0  0  0  0  0  0  0
  125.5948  136.9240  144.8345 C   0  0  0  0  0  0  0  0  0  0  0  0
  124.9578  135.9210  145.6728 C   0  0  0  0  0  0  0  0  0  0  0  0
  123.6464  135.7654  145.6967 C   0  0  0  0  0  0  0  0  0  0  0  0
  122.6776  136.9852  146.4908 Cl  0  0  0  0  0  0  0  0  0  0  0  0
  123.0063  134.6147  145.0831 C   0  0  0  0  0  0  0  0  0  0  0  0
  123.7150  133.8234  144.3127 C   0  0  0  0  0  0  0  0  0  0  0  0
  121.6545  134.3402  145.3006 O   0  0  0  0  0  1  0  0  0  0  0  0
  127.7398  137.2201  145.8691 N   0  0  0  0  0  0  0  0  0  0  0  0
  127.7704  138.4722  146.5960 C   0  0  0  0  0  0  0  0  0  0  0  0
  127.2461  139.4550  145.9998 N   0  0  0  0  0  0  0  0  0  0  0  0
  127.1503  140.7733  146.4926 C   0  0  0  0  0  0  0  0  0  0  0  0
  126.5344  141.7217  145.6833 C   0  0  0  0  0  0  0  0  0  0  0  0
  126.4330  143.0135  146.1505 C   0  0  0  0  0  0  0  0  0  0  0  0
  126.9352  143.3495  147.3964 C   0  0  0  0  0  0  0  0  0  0  0  0
  127.5394  142.4116  148.1862 C   0  0  0  0  0  0  0  0  0  0  0  0
  127.6458  141.1159  147.7279 C   0  0  0  0  0  0  0  0  0  0  0  0
  128.4188  139.8383  148.6973 P   0  0  0  0  0  5  0  0  0  0  0  0
  127.6802  139.6885  150.2711 N   0  0  0  0  0  0  0  0  0  0  0  0
  128.5696  139.0772  151.2329 C   0  0  0  0  0  0  0  0  0  0  0  0
  127.9957  139.3941  152.6135 C   0  0  0  0  0  0  0  0  0  0  0  0
  128.9424  139.1798  153.6034 O   0  0  0  0  0  0  0  0  0  0  0  0
  128.3666  138.4982  147.8781 N   0  0  0  0  0  0  0  0  0  0  0  0
  1  2  1  0
  2  3  2  3
  3  4  1  0
  4  5  2  3
  5  6  1  0
  5  7  1  0
  7  8  2  0
  7  9  1  0
  2 10  1  0
 10 11  1  0
 11 12  2  0
 12 13  1  0
 13 14  2  0
 14 15  1  0
 15 16  2  0
 16 17  1  0
 17 18  2  0
 18 19  1  0
 19 20  1  0
 20 21  1  0
 21 22  1  0
 22 23  1  0
 19 24  2  0
 24 11  1  0
 18 13  1  0
M  CHG  2   1  -1   9  -1
M  RAD  1   1   2
M  END
$$$$
