
     RDKit          3D

 21 22  0  0  0  0  0  0  0  0999 V2000
   10.3920    5.3794   -2.2905 C   0  0  0  0  0  0  0  0  0  0  0  0
    9.5276    5.5135   -1.1316 N   0  0  0  0  0  4  0  0  0  0  0  0
    8.1419    5.2531   -1.4820 C   0  0  0  0  0  0  0  0  0  0  0  0
    9.9143    4.5565   -0.1235 C   0  0  0  0  0  0  0  0  0  0  0  0
   10.3576    5.2987    1.0999 C   0  0  0  0  0  0  0  0  0  0  0  0
   11.4962    4.6519    1.8147 C   0  0  0  0  0  0  0  0  0  0  0  0
   11.8748    5.4500    2.9554 N   0  0  0  0  0  0  0  0  0  0  0  0
   13.2838    5.6807    3.0203 C   0  0  0  0  0  0  0  0  0  0  0  0
   13.5970    6.4802    4.2493 C   0  0  0  0  0  0  0  0  0  0  0  0
   13.0325    7.7367    4.4945 C   0  0  0  0  0  0  0  0  0  0  0  0
   13.5678    8.1242    5.7014 C   0  0  0  0  0  0  0  0  0  0  0  0
   14.4249    7.1039    6.1386 C   0  0  0  0  0  0  0  0  0  0  0  0
   15.1619    7.1914    7.3949 C   0  0  0  0  0  0  0  0  0  0  0  0
   16.0788    6.2334    7.7749 C   0  0  0  0  0  0  0  0  0  0  0  0
   16.7828    6.3128    8.9593 C   0  0  0  0  0  0  0  0  0  0  0  0
   16.5889    7.3855    9.8319 C   0  0  0  0  0  0  0  0  0  0  0  0
   17.4919    7.4715   11.3327 Cl  0  0  0  0  0  0  0  0  0  0  0  0
   15.6742    8.3424    9.4542 C   0  0  0  0  0  0  0  0  0  0  0  0
   14.9766    8.2463    8.2617 C   0  0  0  0  0  0  0  0  0  0  0  0
   13.8115    9.4876    7.7984 Cl  0  0  0  0  0  0  0  0  0  0  0  0
   14.3932    6.1680    5.2345 O   0  0  0  0  0  0  0  0  0  0  0  0
  1  2  1  0
  2  3  1  0
  2  4  1  0
  4  5  1  0
  5  6  1  0
  6  7  1  0
  7  8  1  0
  8  9  1  0
  9 10  2  0
 10 11  1  0
 11 12  2  0
 12 13  1  0
 13 14  2  0
 14 15  1  0
 15 16  2  0
 16 17  1  0
 16 18  1  0
 18 19  2  0
 19 20  1  0
 12 21  1  0
 21  9  1  0
 19 13  1  0
M  CHG  1   2   1
M  END
$$$$
