
     RDKit          3D

 21 22  0  0  0  0  0  0  0  0999 V2000
   21.4378   65.1177   19.9244 C   0  0  0  0  0  0  0  0  0  0  0  0
   20.8976   65.9161   18.8033 C   0  0  0  0  0  0  0  0  0  0  0  0
   21.7001   66.5237   17.9597 C   0  0  0  0  0  0  0  0  0  0  0  0
   21.2826   66.8291   16.5379 C   0  0  0  0  0  0  0  0  0  0  0  0
   20.1703   67.7981   16.4929 C   0  0  0  0  0  0  0  0  0  0  0  0
   20.3721   68.9392   15.6175 C   0  0  0  0  0  0  0  0  0  0  0  0
   19.2854   69.8951   15.5551 N   0  0  0  0  0  0  0  0  0  0  0  0
   17.9446   69.5076   15.2800 C   0  0  0  0  0  0  0  0  0  0  0  0
   17.5308   69.9470   13.9186 C   0  0  0  0  0  0  0  0  0  0  0  0
   18.1249   69.1304   12.9229 O   0  0  0  0  0  0  0  0  0  0  0  0
   21.4213   69.1203   14.9289 N   0  0  0  0  0  0  0  0  0  0  0  0
   22.4803   68.1696   14.9945 C   0  0  0  0  0  0  0  0  0  0  0  0
   23.6927   68.3490   14.2249 N   0  0  0  0  0  0  0  0  0  0  0  0
   23.8314   69.5166   13.4293 C   0  0  0  0  0  0  0  0  0  0  0  0
   24.8898   69.7575   12.6752 C   0  0  0  0  0  0  0  0  0  0  0  0
   24.9820   71.0076   11.8541 C   0  0  0  0  0  0  0  0  0  0  0  0
   25.9523   68.7731   12.6833 C   0  0  0  0  0  0  0  0  0  0  0  0
   27.3575   69.1169   11.6636 Cl  0  0  0  0  0  0  0  0  0  0  0  0
   25.8902   67.6712   13.4076 C   0  0  0  0  0  0  0  0  0  0  0  0
   24.7305   67.3724   14.2587 C   0  0  0  0  0  0  0  0  0  0  0  0
   22.3935   67.1425   15.7291 N   0  0  0  0  0  0  0  0  0  0  0  0
  1  2  1  0
  2  3  2  3
  3  4  1  0
  4  5  1  0
  5  6  1  0
  6  7  1  0
  7  8  1  0
  8  9  1  0
  9 10  1  0
  6 11  2  0
 11 12  1  0
 12 13  1  0
 13 14  1  0
 14 15  2  0
 15 16  1  0
 15 17  1  0
 17 18  1  0
 17 19  2  0
 19 20  1  0
 12 21  2  0
 21  4  1  0
 20 13  1  0
M  END
$$$$
