
     RDKit          3D

 21 22  0  0  0  0  0  0  0  0999 V2000
   31.4462   54.1394   23.1691 C   0  0  0  0  0  0  0  0  0  0  0  0
   29.9991   53.9107   22.9703 C   0  0  0  0  0  0  0  0  0  0  0  0
   29.3322   53.0912   23.7503 C   0  0  0  0  0  0  0  0  0  0  0  0
   28.0284   53.4932   24.4041 C   0  0  0  0  0  0  0  0  0  0  0  0
   26.9851   53.7885   23.4029 C   0  0  0  0  0  0  0  0  0  0  0  0
   25.7181   53.1075   23.6028 C   0  0  0  0  0  0  0  0  0  0  0  0
   24.6803   53.3938   22.6335 N   0  0  0  0  0  0  0  0  0  0  0  0
   24.9655   53.9351   21.3493 C   0  0  0  0  0  0  0  0  0  0  0  0
   24.3344   53.1200   20.2745 C   0  0  0  0  0  0  0  0  0  0  0  0
   23.7860   51.9244   20.8047 O   0  0  0  0  0  0  0  0  0  0  0  0
   25.4936   52.3064   24.5598 N   0  0  0  0  0  0  0  0  0  0  0  0
   26.5207   52.0381   25.5099 C   0  0  0  0  0  0  0  0  0  0  0  0
   26.2985   51.1256   26.6110 N   0  0  0  0  0  0  0  0  0  0  0  0
   25.0741   50.4092   26.6693 C   0  0  0  0  0  0  0  0  0  0  0  0
   24.7706   49.5725   27.6464 C   0  0  0  0  0  0  0  0  0  0  0  0
   23.4615   48.8433   27.6570 C   0  0  0  0  0  0  0  0  0  0  0  0
   25.7536   49.3854   28.6936 C   0  0  0  0  0  0  0  0  0  0  0  0
   25.3230   48.2622   29.9919 Cl  0  0  0  0  0  0  0  0  0  0  0  0
   26.9149   50.0133   28.6942 C   0  0  0  0  0  0  0  0  0  0  0  0
   27.2862   50.9482   27.6233 C   0  0  0  0  0  0  0  0  0  0  0  0
   27.6575   52.5868   25.4177 N   0  0  0  0  0  0  0  0  0  0  0  0
  1  2  1  0
  2  3  2  3
  3  4  1  0
  4  5  1  0
  5  6  1  0
  6  7  1  0
  7  8  1  0
  8  9  1  0
  9 10  1  0
  6 11  2  0
 11 12  1  0
 12 13  1  0
 13 14  1  0
 14 15  2  0
 15 16  1  0
 15 17  1  0
 17 18  1  0
 17 19  2  0
 19 20  1  0
 12 21  2  0
 21  4  1  0
 20 13  1  0
M  END
$$$$
