
     RDKit          3D

 22 23  0  0  0  0  0  0  0  0999 V2000
  153.3470  154.9885  148.5114 C   0  0  0  0  0  0  0  0  0  0  0  0
  154.6253  154.4054  148.6642 O   0  0  0  0  0  0  0  0  0  0  0  0
  155.0213  153.4438  147.7501 C   0  0  0  0  0  0  0  0  0  0  0  0
  154.1529  152.8880  146.8526 C   0  0  0  0  0  0  0  0  0  0  0  0
  154.5257  151.9129  145.9160 C   0  0  0  0  0  0  0  0  0  0  0  0
  153.5381  151.3734  144.9963 C   0  0  0  0  0  0  0  0  0  0  0  0
  153.8024  150.4218  144.1486 C   0  0  0  0  0  0  0  0  0  0  0  0
  152.7126  149.8248  143.3569 C   0  0  0  0  0  0  0  0  0  0  0  0
  151.5752  150.3620  143.3680 O   0  0  0  0  0  0  0  0  0  0  0  0
  152.8921  148.6321  142.5553 C   0  0  0  0  0  0  0  0  0  0  0  0
  152.0187  148.2507  141.5532 C   0  0  0  0  0  0  0  0  0  0  0  0
  152.2300  147.0956  140.8069 C   0  0  0  0  0  0  0  0  0  0  0  0
  153.3212  146.2856  141.0393 C   0  0  0  0  0  0  0  0  0  0  0  0
  153.5304  144.8466  140.0663 Cl  0  0  0  0  0  0  0  0  0  0  0  0
  154.2036  146.6495  142.0348 C   0  0  0  0  0  0  0  0  0  0  0  0
  153.9710  147.7986  142.7592 C   0  0  0  0  0  0  0  0  0  0  0  0
  155.8508  151.5346  145.9497 C   0  0  0  0  0  0  0  0  0  0  0  0
  156.7569  152.0913  146.8607 C   0  0  0  0  0  0  0  0  0  0  0  0
  158.4071  151.5390  146.8142 Cl  0  0  0  0  0  0  0  0  0  0  0  0
  156.3333  153.0452  147.7571 C   0  0  0  0  0  0  0  0  0  0  0  0
  157.2549  153.5714  148.6402 O   0  0  0  0  0  0  0  0  0  0  0  0
  156.9203  154.0744  149.9121 C   0  0  0  0  0  0  0  0  0  0  0  0
  1  2  1  0
  2  3  1  0
  3  4  2  0
  4  5  1  0
  5  6  1  0
  6  7  2  3
  7  8  1  0
  8  9  2  0
  8 10  1  0
 10 11  2  0
 11 12  1  0
 12 13  2  0
 13 14  1  0
 13 15  1  0
 15 16  2  0
  5 17  2  0
 17 18  1  0
 18 19  1  0
 18 20  2  0
 20 21  1  0
 21 22  1  0
 20  3  1  0
 16 10  1  0
M  END
$$$$
