
     RDKit          3D

 19 20  0  0  0  0  0  0  0  0999 V2000
   -3.7535   55.8734   13.3037 O   0  0  0  0  0  0  0  0  0  0  0  0
   -2.7236   55.2387   12.9593 C   0  0  0  0  0  0  0  0  0  0  0  0
   -1.4157   55.8351   13.0304 N   0  0  0  0  0  0  0  0  0  0  0  0
   -1.2454   57.2315   12.8423 C   0  0  0  0  0  0  0  0  0  0  0  0
   -0.0154   57.7609   12.6135 C   0  0  0  0  0  0  0  0  0  0  0  0
    0.2012   59.1144   12.4243 C   0  0  0  0  0  0  0  0  0  0  0  0
   -0.9093   59.9344   12.4775 C   0  0  0  0  0  0  0  0  0  0  0  0
   -0.6553   61.6499   12.2405 Cl  0  0  0  0  0  0  0  0  0  0  0  0
   -2.1653   59.4215   12.7079 C   0  0  0  0  0  0  0  0  0  0  0  0
   -2.3506   58.0526   12.8947 C   0  0  0  0  0  0  0  0  0  0  0  0
   -2.8962   53.9054   12.4950 N   0  0  0  0  0  0  0  0  0  0  0  0
   -4.0037   53.0971   12.8744 C   0  0  0  0  0  0  0  0  0  0  0  0
   -3.8931   51.7343   12.6229 C   0  0  0  0  0  0  0  0  0  0  0  0
   -4.9230   50.8874   12.9617 C   0  0  0  0  0  0  0  0  0  0  0  0
   -6.0425   51.3994   13.5419 C   0  0  0  0  0  0  0  0  0  0  0  0
   -7.0490   50.5210   13.8655 F   0  0  0  0  0  0  0  0  0  0  0  0
   -6.1403   52.7376   13.7839 C   0  0  0  0  0  0  0  0  0  0  0  0
   -7.2580   53.2179   14.3586 F   0  0  0  0  0  0  0  0  0  0  0  0
   -5.1358   53.6157   13.4612 C   0  0  0  0  0  0  0  0  0  0  0  0
  1  2  2  0
  2  3  1  0
  3  4  1  0
  4  5  2  0
  5  6  1  0
  6  7  2  0
  7  8  1  0
  7  9  1  0
  9 10  2  0
  2 11  1  0
 11 12  1  0
 12 13  2  0
 13 14  1  0
 14 15  2  0
 15 16  1  0
 15 17  1  0
 17 18  1  0
 17 19  2  0
 10  4  1  0
 19 12  1  0
M  END
$$$$
