
     RDKit          3D

 19 20  0  0  0  0  0  0  0  0999 V2000
   13.6184    7.0232    6.2010 O   0  0  0  0  0  0  0  0  0  0  0  0
   14.4630    6.2667    5.6566 C   0  0  0  0  0  0  0  0  0  0  0  0
   15.5921    5.7539    6.3869 N   0  0  0  0  0  0  0  0  0  0  0  0
   15.9253    6.2746    7.6645 C   0  0  0  0  0  0  0  0  0  0  0  0
   15.2100    7.2910    8.2130 C   0  0  0  0  0  0  0  0  0  0  0  0
   15.4957    7.8320    9.4542 C   0  0  0  0  0  0  0  0  0  0  0  0
   16.5655    7.2870   10.1377 C   0  0  0  0  0  0  0  0  0  0  0  0
   16.9425    7.9582   11.7097 Cl  0  0  0  0  0  0  0  0  0  0  0  0
   17.3049    6.2571    9.6027 C   0  0  0  0  0  0  0  0  0  0  0  0
   16.9915    5.7337    8.3493 C   0  0  0  0  0  0  0  0  0  0  0  0
   14.2634    5.9336    4.2882 N   0  0  0  0  0  0  0  0  0  0  0  0
   13.0473    5.3780    3.8022 C   0  0  0  0  0  0  0  0  0  0  0  0
   13.1051    4.0700    3.3349 C   0  0  0  0  0  0  0  0  0  0  0  0
   11.9700    3.4633    2.8490 C   0  0  0  0  0  0  0  0  0  0  0  0
   10.7992    4.1569    2.8328 C   0  0  0  0  0  0  0  0  0  0  0  0
    9.6877    3.5161    2.3398 F   0  0  0  0  0  0  0  0  0  0  0  0
   10.7540    5.4393    3.2936 C   0  0  0  0  0  0  0  0  0  0  0  0
    9.5839    6.1027    3.2664 F   0  0  0  0  0  0  0  0  0  0  0  0
   11.8634    6.0803    3.7861 C   0  0  0  0  0  0  0  0  0  0  0  0
  1  2  2  0
  2  3  1  0
  3  4  1  0
  4  5  2  0
  5  6  1  0
  6  7  2  0
  7  8  1  0
  7  9  1  0
  9 10  2  0
  2 11  1  0
 11 12  1  0
 12 13  2  0
 13 14  1  0
 14 15  2  0
 15 16  1  0
 15 17  1  0
 17 18  1  0
 17 19  2  0
 10  4  1  0
 19 12  1  0
M  END
$$$$
