
     RDKit          3D

 10  9  0  0  0  0  0  0  0  0999 V2000
    9.4834  -21.4830  -10.0369 C   0  0  0  0  0  0  0  0  0  0  0  0
   10.0402  -21.3048   -8.6597 C   0  0  0  0  0  0  0  0  0  0  0  0
   11.1995  -21.8719   -8.3993 C   0  0  0  0  0  0  0  0  0  0  0  0
   11.6873  -21.7987   -7.0537 N   0  0  0  0  0  0  0  0  0  0  0  0
   13.0392  -22.1187   -6.7042 C   0  0  0  0  0  0  0  0  0  0  0  0
   13.1853  -23.9044   -6.7408 Cl  0  0  0  0  0  0  0  0  0  0  0  0
   13.3449  -21.6248   -5.3415 C   0  0  0  0  0  0  0  0  0  0  0  0
   14.5573  -21.6969   -4.8302 C   0  0  0  0  0  0  0  0  0  0  0  0
   14.8535  -21.3853   -3.4135 C   0  0  0  0  0  0  0  0  0  0  0  0
   14.3937  -22.8332   -2.4604 Cl  0  0  0  0  0  0  0  0  0  0  0  0
  1  2  1  0
  2  3  2  3
  3  4  1  0
  4  5  1  0
  5  6  1  0
  5  7  1  0
  7  8  2  3
  8  9  1  0
  9 10  1  0
M  END
$$$$
