
     RDKit          3D

 20 20  0  0  0  0  0  0  0  0999 V2000
  126.9966  134.1411  143.7233 C   0  0  0  0  0  0  0  0  0  0  0  0
  127.7170  135.1676  143.1644 O   0  0  0  0  0  0  0  0  0  0  0  0
  127.2258  136.4230  143.4008 C   0  0  0  0  0  0  0  0  0  0  0  0
  128.1109  137.5411  142.8438 C   0  0  0  0  0  0  0  0  0  0  0  0
  127.3763  138.8263  143.1557 C   0  0  0  0  0  0  0  0  0  0  0  0
  127.5053  139.2450  144.5313 N   0  0  0  0  0  0  0  0  0  0  0  0
  127.6301  140.6181  144.9310 C   0  0  0  0  0  0  0  0  0  0  0  0
  127.4721  141.4788  144.0491 O   0  0  0  0  0  0  0  0  0  0  0  0
  127.9335  140.9639  146.3344 C   0  0  0  0  0  0  0  0  0  0  0  0
  127.3932  142.3201  146.7379 C   0  0  0  0  0  0  0  0  0  0  0  0
  127.7642  142.7124  148.1270 C   0  0  0  0  0  0  0  0  0  0  0  0
  127.3079  143.9574  148.4550 O   0  0  0  0  0  0  0  0  0  0  0  0
  127.4657  144.7986  149.5092 C   0  0  0  0  0  0  0  0  0  0  0  0
  128.4830  144.6757  150.4171 C   0  0  0  0  0  0  0  0  0  0  0  0
  128.5732  145.5731  151.4574 C   0  0  0  0  0  0  0  0  0  0  0  0
  127.6479  146.5828  151.5789 C   0  0  0  0  0  0  0  0  0  0  0  0
  127.7633  147.7284  152.9005 Cl  0  0  0  0  0  0  0  0  0  0  0  0
  126.6258  146.7043  150.6637 C   0  0  0  0  0  0  0  0  0  0  0  0
  126.5227  145.8270  149.6322 C   0  0  0  0  0  0  0  0  0  0  0  0
  125.2362  145.9750  148.4744 Cl  0  0  0  0  0  0  0  0  0  0  0  0
  1  2  1  0
  2  3  1  0
  3  4  1  0
  4  5  1  0
  5  6  1  0
  6  7  1  0
  7  8  2  0
  7  9  1  0
  9 10  1  0
 10 11  1  0
 11 12  1  0
 12 13  1  0
 13 14  2  0
 14 15  1  0
 15 16  2  0
 16 17  1  0
 16 18  1  0
 18 19  2  0
 19 20  1  0
 19 13  1  0
M  END
$$$$
