
     RDKit          3D

 20 21  0  0  0  0  0  0  0  0999 V2000
  127.8186  146.7968  151.1791 O   0  0  0  0  0  0  0  0  0  0  0  0
  127.9320  145.5651  150.9893 C   0  0  0  0  0  0  0  0  0  0  0  0
  128.4143  144.7882  152.0262 O   0  0  0  0  0  0  0  0  0  0  0  0
  127.5761  144.9296  149.7248 C   0  0  0  0  0  0  0  0  0  0  0  0
  126.9089  145.6275  148.7317 C   0  0  0  0  0  0  0  0  0  0  0  0
  126.5862  144.9980  147.5481 C   0  0  0  0  0  0  0  0  0  0  0  0
  126.9029  143.6853  147.3058 C   0  0  0  0  0  0  0  0  0  0  0  0
  127.5633  142.9623  148.2614 C   0  0  0  0  0  0  0  0  0  0  0  0
  127.9867  141.6128  148.0762 C   0  0  0  0  0  0  0  0  0  0  0  0
  128.9572  141.2863  148.9433 O   0  0  0  0  0  0  0  0  0  0  0  0
  127.6382  140.5546  147.2253 C   0  0  0  0  0  0  0  0  0  0  0  0
  128.0875  139.5632  146.5705 C   0  0  0  0  0  0  0  0  0  0  0  0
  127.6316  138.5016  145.7355 C   0  0  0  0  0  0  0  0  0  0  0  0
  126.7739  137.5180  146.1344 C   0  0  0  0  0  0  0  0  0  0  0  0
  126.4159  136.4659  145.2921 C   0  0  0  0  0  0  0  0  0  0  0  0
  126.9210  136.3902  144.0220 C   0  0  0  0  0  0  0  0  0  0  0  0
  127.7880  137.3642  143.5811 C   0  0  0  0  0  0  0  0  0  0  0  0
  128.2999  137.2814  142.2814 O   0  0  0  0  0  0  0  0  0  0  0  0
  128.1349  138.3954  144.4182 C   0  0  0  0  0  0  0  0  0  0  0  0
  127.8892  143.6161  149.4719 C   0  0  0  0  0  0  0  0  0  0  0  0
  1  2  2  0
  2  3  1  0
  2  4  1  0
  4  5  2  0
  5  6  1  0
  6  7  2  0
  7  8  1  0
  8  9  1  0
  9 10  2  0
  9 11  1  0
 11 12  2  3
 12 13  1  0
 13 14  2  0
 14 15  1  0
 15 16  2  0
 16 17  1  0
 17 18  1  0
 17 19  2  0
  8 20  2  0
 20  4  1  0
 19 13  1  0
M  END
$$$$
