
     RDKit          3D

 20 21  0  0  0  0  0  0  0  0999 V2000
  117.6264  147.9280  147.4592 O   0  0  0  0  0  0  0  0  0  0  0  0
  117.7298  148.6016  146.4095 C   0  0  0  0  0  0  0  0  0  0  0  0
  117.0750  149.8177  146.3492 O   0  0  0  0  0  0  0  0  0  0  0  0
  118.5094  148.1510  145.2612 C   0  0  0  0  0  0  0  0  0  0  0  0
  119.8438  147.8025  145.3898 C   0  0  0  0  0  0  0  0  0  0  0  0
  120.5532  147.3812  144.2849 C   0  0  0  0  0  0  0  0  0  0  0  0
  119.9848  147.2901  143.0397 C   0  0  0  0  0  0  0  0  0  0  0  0
  118.6684  147.6239  142.8719 C   0  0  0  0  0  0  0  0  0  0  0  0
  117.9770  147.5037  141.6301 C   0  0  0  0  0  0  0  0  0  0  0  0
  116.6529  147.6423  141.7976 O   0  0  0  0  0  0  0  0  0  0  0  0
  118.3367  147.2848  140.2929 C   0  0  0  0  0  0  0  0  0  0  0  0
  117.8914  147.1509  139.1109 C   0  0  0  0  0  0  0  0  0  0  0  0
  118.3454  146.8432  137.7951 C   0  0  0  0  0  0  0  0  0  0  0  0
  119.6483  146.6132  137.4608 C   0  0  0  0  0  0  0  0  0  0  0  0
  120.0416  146.3832  136.1428 C   0  0  0  0  0  0  0  0  0  0  0  0
  119.1176  146.3798  135.1328 C   0  0  0  0  0  0  0  0  0  0  0  0
  117.7926  146.6060  135.4292 C   0  0  0  0  0  0  0  0  0  0  0  0
  116.8532  146.6004  134.3921 O   0  0  0  0  0  0  0  0  0  0  0  0
  117.4156  146.8323  136.7296 C   0  0  0  0  0  0  0  0  0  0  0  0
  117.9497  148.0555  144.0103 C   0  0  0  0  0  0  0  0  0  0  0  0
  1  2  2  0
  2  3  1  0
  2  4  1  0
  4  5  2  0
  5  6  1  0
  6  7  2  0
  7  8  1  0
  8  9  1  0
  9 10  2  0
  9 11  1  0
 11 12  2  3
 12 13  1  0
 13 14  2  0
 14 15  1  0
 15 16  2  0
 16 17  1  0
 17 18  1  0
 17 19  2  0
  8 20  2  0
 20  4  1  0
 19 13  1  0
M  END
$$$$
