
     RDKit          3D

 19 18  0  0  0  0  0  0  0  0999 V2000
   -3.0356   22.5158   14.1794 C   0  0  0  0  0  0  0  0  0  0  0  0
   -2.9831   23.7751   13.7809 C   0  0  0  0  0  0  0  0  0  0  0  0
   -3.4963   24.1320   12.4645 C   0  0  0  0  0  0  0  0  0  0  0  0
   -3.3093   25.2832   12.0002 O   0  0  0  0  0  0  0  0  0  0  0  0
   -4.2223   23.2106   11.6532 N   0  0  0  0  0  0  0  0  0  0  0  0
   -4.8640   23.6021   10.4139 C   0  0  0  0  0  0  0  0  0  0  0  0
   -5.6719   24.8400   10.5727 C   0  0  0  0  0  0  0  0  0  0  0  0
   -6.4594   25.3399    9.6279 C   0  0  0  0  0  0  0  0  0  0  0  0
   -6.2046   24.9231    8.2323 C   0  0  0  0  0  0  0  0  0  0  0  0
   -7.5727   26.2973    9.9648 C   0  0  0  0  0  0  0  0  0  0  0  0
   -7.6945   27.2154    8.7450 C   0  0  0  0  0  0  0  0  0  0  0  0
   -9.1248   27.4566    8.4380 C   0  0  0  0  0  0  0  0  0  0  0  0
   -9.6860   28.6440    8.5847 C   0  0  0  0  0  0  0  0  0  0  0  0
  -11.1603   28.8317    8.5507 C   0  0  0  0  0  0  0  0  0  0  0  0
   -8.8315   29.8421    8.7916 C   0  0  0  0  0  0  0  0  0  0  0  0
   -2.4020   24.7978   14.6842 C   0  0  0  0  0  0  0  0  0  0  0  0
   -1.0499   24.8837   14.3577 F   0  0  0  0  0  0  0  0  0  0  0  0
   -2.5855   24.4797   16.0124 F   0  0  0  0  0  0  0  0  0  0  0  0
   -2.9409   26.0369   14.3977 F   0  0  0  0  0  0  0  0  0  0  0  0
  1  2  2  0
  2  3  1  0
  3  4  2  0
  3  5  1  0
  5  6  1  0
  6  7  1  0
  7  8  2  0
  8  9  1  0
  8 10  1  0
 10 11  1  0
 11 12  1  0
 12 13  2  3
 13 14  1  0
 13 15  1  0
  2 16  1  0
 16 17  1  0
 16 18  1  0
 16 19  1  0
M  END
$$$$
