
     RDKit          3D

 25 27  0  0  0  0  0  0  0  0999 V2000
   17.4746    2.6876    4.3608 C   0  0  0  0  0  0  0  0  0  0  0  0
   17.1081    4.0894    3.9436 C   0  0  0  0  0  0  0  0  0  0  0  0
   15.8221    4.1880    3.3918 O   0  0  0  0  0  0  0  0  0  0  0  0
   14.7066    4.5903    4.1366 C   0  0  0  0  0  0  0  0  0  0  0  0
   14.9452    5.4121    5.0640 O   0  0  0  0  0  0  0  0  0  0  0  0
   13.3759    4.1126    3.8787 C   0  0  0  0  0  0  0  0  0  0  0  0
   13.2240    2.8600    3.2830 C   0  0  0  0  0  0  0  0  0  0  0  0
   11.9951    2.4132    3.0422 N   0  0  0  0  0  0  0  0  0  0  0  0
   10.9078    3.1396    3.3593 C   0  0  0  0  0  0  0  0  0  0  0  0
    9.6754    2.5920    3.0707 C   0  0  0  0  0  0  0  0  0  0  0  0
    9.5630    1.2499    2.4337 C   0  0  0  0  0  0  0  0  0  0  0  0
    8.5325    3.3117    3.3833 C   0  0  0  0  0  0  0  0  0  0  0  0
    7.1730    2.7814    3.0999 C   0  0  0  0  0  0  0  0  0  0  0  0
    8.6749    4.5519    3.9729 C   0  0  0  0  0  0  0  0  0  0  0  0
    9.8938    5.0860    4.2548 C   0  0  0  0  0  0  0  0  0  0  0  0
   11.0423    4.3930    3.9549 C   0  0  0  0  0  0  0  0  0  0  0  0
   12.3008    4.8940    4.2221 C   0  0  0  0  0  0  0  0  0  0  0  0
   12.4129    6.1734    4.8294 N   0  0  0  0  0  0  0  0  0  0  0  0
   11.8654    7.3499    4.2748 C   0  0  0  0  0  0  0  0  0  0  0  0
   11.3045    7.3835    3.0251 C   0  0  0  0  0  0  0  0  0  0  0  0
   10.7687    8.5170    2.4717 C   0  0  0  0  0  0  0  0  0  0  0  0
   10.7811    9.6884    3.1809 C   0  0  0  0  0  0  0  0  0  0  0  0
   10.2284   10.8298    2.5939 O   0  0  0  0  0  0  0  0  0  0  0  0
   11.3365    9.6928    4.4401 C   0  0  0  0  0  0  0  0  0  0  0  0
   11.8759    8.5396    4.9902 C   0  0  0  0  0  0  0  0  0  0  0  0
  1  2  1  0
  2  3  1  0
  3  4  1  0
  4  5  2  0
  4  6  1  0
  6  7  2  0
  7  8  1  0
  8  9  2  0
  9 10  1  0
 10 11  1  0
 10 12  2  0
 12 13  1  0
 12 14  1  0
 14 15  2  0
 15 16  1  0
 16 17  2  0
 17 18  1  0
 18 19  1  0
 19 20  2  0
 20 21  1  0
 21 22  2  0
 22 23  1  0
 22 24  1  0
 24 25  2  0
 17  6  1  0
 25 19  1  0
 16  9  1  0
M  END
$$$$
