
     RDKit          3D

 29 31  0  0  0  0  0  0  0  0999 V2000
  173.9604  146.7261  158.4868 C   0  0  0  0  0  0  0  0  0  0  0  0
  173.3109  145.6781  159.3335 C   0  0  0  0  0  0  0  0  0  0  0  0
  172.9286  144.5326  158.6438 O   0  0  0  0  0  0  0  0  0  0  0  0
  171.6912  143.9337  158.6899 C   0  0  0  0  0  0  0  0  0  0  0  0
  171.2155  143.6428  159.8063 O   0  0  0  0  0  0  0  0  0  0  0  0
  170.9143  143.6260  157.4819 C   0  0  0  0  0  0  0  0  0  0  0  0
  171.0865  144.3905  156.3263 C   0  0  0  0  0  0  0  0  0  0  0  0
  170.3915  144.1779  155.2063 N   0  0  0  0  0  0  0  0  0  0  0  0
  169.4893  143.1871  155.1919 C   0  0  0  0  0  0  0  0  0  0  0  0
  168.7883  142.9979  154.0134 C   0  0  0  0  0  0  0  0  0  0  0  0
  169.0344  143.8182  152.9115 O   0  0  0  0  0  0  0  0  0  0  0  0
  168.7133  143.4705  151.6023 C   0  0  0  0  0  0  0  0  0  0  0  0
  167.8581  141.9818  153.9874 C   0  0  0  0  0  0  0  0  0  0  0  0
  167.6455  141.1875  155.1114 C   0  0  0  0  0  0  0  0  0  0  0  0
  168.3533  141.3900  156.2785 C   0  0  0  0  0  0  0  0  0  0  0  0
  169.2798  142.4007  156.3070 C   0  0  0  0  0  0  0  0  0  0  0  0
  170.0060  142.6162  157.4887 C   0  0  0  0  0  0  0  0  0  0  0  0
  169.8032  141.7909  158.6059 N   0  0  0  0  0  0  0  0  0  0  0  0
  168.7457  140.8288  158.7439 C   0  0  0  0  0  0  0  0  0  0  0  0
  168.6461  140.3005  160.1290 C   0  0  0  0  0  0  0  0  0  0  0  0
  169.0197  141.0184  161.2351 C   0  0  0  0  0  0  0  0  0  0  0  0
  168.9087  140.4849  162.5026 C   0  0  0  0  0  0  0  0  0  0  0  0
  168.4195  139.2110  162.7193 C   0  0  0  0  0  0  0  0  0  0  0  0
  168.3032  138.6566  164.0251 N   0  0  0  0  0  0  0  0  0  0  0  0
  167.7842  137.3463  164.2439 C   0  0  0  0  0  0  0  0  0  0  0  0
  167.5097  136.8303  165.5296 N   0  0  0  0  0  0  0  0  0  0  0  0
  167.5750  136.6493  163.2167 O   0  0  0  0  0  0  0  0  0  0  0  0
  168.0426  138.4858  161.6082 C   0  0  0  0  0  0  0  0  0  0  0  0
  168.1517  139.0175  160.3248 C   0  0  0  0  0  0  0  0  0  0  0  0
  1  2  1  0
  2  3  1  0
  3  4  1  0
  4  5  2  0
  4  6  1  0
  6  7  2  0
  7  8  1  0
  8  9  2  0
  9 10  1  0
 10 11  1  0
 11 12  1  0
 10 13  2  0
 13 14  1  0
 14 15  2  0
 15 16  1  0
 16 17  2  0
 17 18  1  0
 18 19  1  0
 19 20  1  0
 20 21  2  0
 21 22  1  0
 22 23  2  0
 23 24  1  0
 24 25  1  0
 25 26  1  0
 25 27  2  0
 23 28  1  0
 28 29  2  0
 17  6  1  0
 29 20  1  0
 16  9  1  0
M  END
$$$$
