
     RDKit          3D

 17 17  0  0  0  0  0  0  0  0999 V2000
   44.3530   62.8546    8.2400 C   0  0  0  0  0  0  0  0  0  0  0  0
   44.4391   62.2133    9.4715 O   0  0  0  0  0  0  0  0  0  0  0  0
   45.3841   62.7856   10.3060 C   0  0  0  0  0  0  0  0  0  0  0  0
   46.6701   62.6919    9.6817 N   0  0  0  0  0  0  0  0  0  0  0  0
   47.2906   61.4233    9.4498 C   0  0  0  0  0  0  0  0  0  0  0  0
   47.0732   60.5875   10.4137 N   0  0  0  0  0  0  0  0  0  0  0  0
   47.4782   59.2456   10.6165 C   0  0  0  0  0  0  0  0  0  0  0  0
   47.0987   58.7135   11.9162 C   0  0  0  0  0  0  0  0  0  0  0  0
   46.5706   59.4788   12.8411 C   0  0  0  0  0  0  0  0  0  0  0  0
   46.5258   59.1130   14.2799 C   0  0  0  0  0  0  0  0  0  0  0  0
   46.0520   57.6728   14.3504 C   0  0  0  0  0  0  0  0  0  0  0  0
   45.5746   60.0338   15.0181 C   0  0  0  0  0  0  0  0  0  0  0  0
   48.1222   58.3621    9.8982 N   0  0  0  0  0  0  0  0  0  0  0  0
   48.7190   58.2902    8.6107 C   0  0  0  0  0  0  0  0  0  0  0  0
   48.9338   59.1517    7.6294 C   0  0  0  0  0  0  0  0  0  0  0  0
   48.6455   60.5698    7.4439 C   0  0  0  0  0  0  0  0  0  0  0  0
   47.9937   61.4579    8.1723 C   0  0  0  0  0  0  0  0  0  0  0  0
  1  2  1  0
  2  3  1  0
  3  4  1  0
  4  5  1  0
  5  6  2  0
  6  7  1  0
  7  8  1  0
  8  9  2  3
  9 10  1  0
 10 11  1  0
 10 12  1  0
  7 13  2  0
 13 14  1  0
 14 15  2  0
 15 16  1  0
 16 17  2  0
 17  5  1  0
M  END
$$$$
