
     RDKit          3D

 11 11  0  0  0  0  0  0  0  0999 V2000
  127.1757  141.1503  145.1762 C   0  0  0  0  0  0  0  0  0  0  0  0
  127.8883  139.8370  144.9599 C   0  0  0  0  0  0  0  0  0  0  0  0
  128.0689  139.5925  143.5135 C   0  0  0  0  0  0  0  0  0  0  0  0
  128.3352  138.4129  143.0178 C   0  0  0  0  0  0  0  0  0  0  0  0
  128.5110  138.1750  141.5872 C   0  0  0  0  0  0  0  0  0  0  0  0
  128.3344  136.9664  140.9682 C   0  0  0  0  0  0  0  0  0  0  0  0
  128.5150  136.7872  139.5915 C   0  0  0  0  0  0  0  0  0  0  0  0
  128.3221  135.5384  139.0161 O   0  0  0  0  0  0  0  0  0  0  0  0
  128.8852  137.8459  138.7949 C   0  0  0  0  0  0  0  0  0  0  0  0
  129.0649  139.0658  139.4111 C   0  0  0  0  0  0  0  0  0  0  0  0
  128.8885  139.2474  140.7654 C   0  0  0  0  0  0  0  0  0  0  0  0
  1  2  1  0
  2  3  1  0
  3  4  2  3
  4  5  1  0
  5  6  2  0
  6  7  1  0
  7  8  1  0
  7  9  2  0
  9 10  1  0
 10 11  2  0
 11  5  1  0
M  END
$$$$
