
     RDKit          3D

 22 23  0  0  0  0  0  0  0  0999 V2000
  150.8990  155.0165  145.8262 C   0  0  0  0  0  0  0  0  0  0  0  0
  152.2093  154.7834  146.5302 C   0  0  0  0  0  0  0  0  0  0  0  0
  153.3943  155.4721  145.8631 C   0  0  0  0  0  0  0  0  0  0  0  0
  152.2856  154.4766  147.9609 C   0  0  0  0  0  0  0  0  0  0  0  0
  151.0639  154.3813  148.8037 C   0  0  0  0  0  0  0  0  0  0  0  0
  150.2040  153.5104  148.5254 O   0  0  0  0  0  0  0  0  0  0  0  0
  150.8179  155.1954  149.8769 O   0  0  0  0  0  0  0  0  0  0  0  0
  149.7279  155.2103  150.7344 C   0  0  0  0  0  0  0  0  0  0  0  0
  149.9345  155.7709  152.0621 C   0  0  0  0  0  0  0  0  0  0  0  0
  150.7713  156.8493  152.2531 C   0  0  0  0  0  0  0  0  0  0  0  0
  150.9342  157.3687  153.5451 C   0  0  0  0  0  0  0  0  0  0  0  0
  150.2861  156.8350  154.6201 C   0  0  0  0  0  0  0  0  0  0  0  0
  150.4021  157.2921  155.8961 O   0  0  0  0  0  0  0  0  0  0  0  0
  150.9510  158.4968  156.2841 C   0  0  0  0  0  0  0  0  0  0  0  0
  150.7693  158.7243  157.6438 F   0  0  0  0  0  0  0  0  0  0  0  0
  150.2829  159.5285  155.6061 F   0  0  0  0  0  0  0  0  0  0  0  0
  149.4441  155.7467  154.4139 C   0  0  0  0  0  0  0  0  0  0  0  0
  148.7971  155.2105  155.4698 F   0  0  0  0  0  0  0  0  0  0  0  0
  149.2806  155.2329  153.1462 C   0  0  0  0  0  0  0  0  0  0  0  0
  152.4746  153.3555  146.8944 C   0  0  0  0  0  0  0  0  0  0  0  0
  151.4256  152.4662  146.8332 F   0  0  0  0  0  0  0  0  0  0  0  0
  153.7317  152.8258  146.8221 F   0  0  0  0  0  0  0  0  0  0  0  0
  1  2  1  0
  2  3  1  0
  2  4  1  0
  4  5  1  0
  5  6  2  0
  5  7  1  0
  7  8  1  0
  8  9  1  0
  9 10  2  0
 10 11  1  0
 11 12  2  0
 12 13  1  0
 13 14  1  0
 14 15  1  0
 14 16  1  0
 12 17  1  0
 17 18  1  0
 17 19  2  0
  4 20  1  0
 20 21  1  0
 20 22  1  0
 20  2  1  0
 19  9  1  0
M  END
$$$$
