
     RDKit          3D

 20 20  0  0  0  0  0  0  0  0999 V2000
  156.8975  150.0069  179.2670 Cl  0  0  0  0  0  0  0  0  0  0  0  0
  156.3998  149.2755  177.7343 C   0  0  0  0  0  0  0  0  0  0  0  0
  156.8438  149.7474  176.5859 C   0  0  0  0  0  0  0  0  0  0  0  0
  156.3630  149.1412  175.3233 C   0  0  0  0  0  0  0  0  0  0  0  0
  157.2263  149.6971  174.2172 C   0  0  0  0  0  0  0  0  0  0  0  0
  158.4861  149.8831  174.4011 N   0  0  0  0  0  0  0  0  0  0  0  0
  159.3619  150.3971  173.4166 C   0  0  0  0  0  0  0  0  0  0  0  0
  160.6624  150.5161  173.6528 C   0  0  0  0  0  0  0  0  0  0  0  0
  161.4556  151.4196  172.8439 C   0  0  0  0  0  0  0  0  0  0  0  0
  162.5159  151.9869  173.1007 C   0  0  0  0  0  0  0  0  0  0  0  0
  163.7327  152.6380  173.3955 C   0  0  0  0  0  0  0  0  0  0  0  0
  164.7941  152.1936  172.3491 C   0  0  0  0  0  0  0  0  0  0  0  0
  165.2306  153.5151  171.7109 C   0  0  0  0  0  0  0  0  0  0  0  0
  164.7957  153.5550  170.3966 O   0  0  0  0  0  0  0  0  0  0  0  0
  164.9580  154.6023  169.5175 C   0  0  0  0  0  0  0  0  0  0  0  0
  164.4034  154.6464  168.3335 C   0  0  0  0  0  0  0  0  0  0  0  0
  164.5469  155.9559  167.1997 Cl  0  0  0  0  0  0  0  0  0  0  0  0
  158.8383  150.8147  172.1099 C   0  0  0  0  0  0  0  0  0  0  0  0
  157.3990  150.5580  171.9993 C   0  0  0  0  0  0  0  0  0  0  0  0
  156.7191  150.0641  172.9530 N   0  0  0  0  0  0  0  0  0  0  0  0
  1  2  1  0
  2  3  2  3
  3  4  1  0
  4  5  1  0
  5  6  2  0
  6  7  1  0
  7  8  2  3
  8  9  1  0
  9 10  2  3
 10 11  1  0
 11 12  1  0
 12 13  1  0
 13 14  1  0
 14 15  1  0
 15 16  2  3
 16 17  1  0
  7 18  1  0
 18 19  1  0
 19 20  2  0
 20  5  1  0
M  END
$$$$
