
     RDKit          3D

 20 22  0  0  0  0  0  0  0  0999 V2000
   49.6783  168.9245  123.8093 Cl  0  0  0  0  0  0  0  0  0  0  0  0
   50.1072  167.7851  122.4878 C   0  0  0  0  0  0  0  0  0  0  0  0
   50.2292  168.5190  121.2192 C   0  0  0  0  0  0  0  0  0  0  0  0
   49.5615  168.2440  120.1107 C   0  0  0  0  0  0  0  0  0  0  0  0
   48.6191  167.1413  120.0835 C   0  0  0  0  0  0  0  0  0  0  0  0
   47.8633  166.7790  118.9380 N   0  0  0  0  0  0  0  0  0  0  0  0
   47.4814  165.4278  118.6570 C   0  0  0  0  0  0  0  0  0  0  0  0
   48.1275  164.9844  117.6109 N   0  0  0  0  0  0  0  0  0  0  0  0
   48.0619  163.7087  116.9810 C   0  0  0  0  0  0  0  0  0  0  0  0
   49.2589  163.5377  116.3182 C   0  0  0  0  0  0  0  0  0  0  0  0
   49.5053  162.3866  115.6032 C   0  0  0  0  0  0  0  0  0  0  0  0
   48.5206  161.3961  115.5619 C   0  0  0  0  0  0  0  0  0  0  0  0
   47.3136  161.5438  116.2174 C   0  0  0  0  0  0  0  0  0  0  0  0
   47.0875  162.7029  116.9269 C   0  0  0  0  0  0  0  0  0  0  0  0
   45.7295  162.5936  117.5215 C   0  0  0  0  0  0  0  0  0  0  0  0
   45.7757  162.5550  119.0180 C   0  0  0  0  0  0  0  0  0  0  0  0
   45.9150  163.8263  119.6427 N   0  0  0  0  0  0  0  0  0  0  0  0
   46.5143  164.9264  119.5730 N   0  0  0  0  0  0  0  0  0  0  0  0
   48.4589  166.4432  121.1778 C   0  0  0  0  0  3  0  0  0  0  0  0
   49.1374  166.6520  122.4565 C   0  0  0  0  0  0  0  0  0  0  0  0
  1  2  1  0
  2  3  1  0
  3  4  2  0
  4  5  1  0
  5  6  1  0
  6  7  1  0
  7  8  2  0
  8  9  1  0
  9 10  2  0
 10 11  1  0
 11 12  2  0
 12 13  1  0
 13 14  2  0
 14 15  1  0
 15 16  1  0
 16 17  1  0
 17 18  2  0
  5 19  2  0
 19 20  1  0
 20  2  1  0
 18  7  1  0
 14  9  1  0
M  CHG  1  19  -1
M  END
$$$$
