
     RDKit          3D

 29 32  0  0  0  0  0  0  0  0999 V2000
    1.0204   -5.1583  -53.4253 C   0  0  0  0  0  0  0  0  0  0  0  0
    0.2797   -5.0446  -54.7480 C   0  0  0  0  0  0  0  0  0  0  0  0
    0.7745   -6.0350  -55.7563 C   0  0  0  0  0  0  0  0  0  0  0  0
    1.4451   -5.3324  -56.8419 N   0  0  0  0  0  0  0  0  0  0  0  0
    0.9612   -5.3855  -58.1734 C   0  0  0  0  0  0  0  0  0  0  0  0
   -0.3217   -5.7412  -58.4064 N   0  0  0  0  0  0  0  0  0  0  0  0
   -0.8232   -5.8053  -59.6486 C   0  0  0  0  0  0  0  0  0  0  0  0
   -2.2071   -6.1887  -59.8549 N   0  0  0  0  0  0  0  0  0  0  0  0
   -3.0857   -6.8143  -58.9217 C   0  0  0  0  0  0  0  0  0  0  0  0
   -3.9124   -6.1526  -58.0544 C   0  0  0  0  0  0  0  0  0  0  0  0
   -5.1762   -5.4384  -58.5778 C   0  0  0  0  0  0  0  0  0  0  0  0
   -5.4144   -5.0842  -59.8907 C   0  0  0  0  0  0  0  0  0  0  0  0
   -6.1946   -3.8410  -60.0430 C   0  0  0  0  0  0  0  0  0  0  0  0
   -7.8393   -4.2142  -59.3951 Cl  0  0  0  0  0  0  0  0  0  0  0  0
   -4.8715   -5.8788  -60.9566 N   0  0  0  0  0  0  0  0  0  0  0  0
   -5.5148   -7.1055  -61.3739 C   0  0  0  0  0  0  0  0  0  0  0  0
   -4.7081   -8.3314  -60.9728 C   0  0  0  0  0  0  0  0  0  0  0  0
   -4.7180   -8.5992  -59.4877 C   0  0  0  0  0  0  0  0  0  0  0  0
   -3.2925   -8.2779  -58.9933 C   0  0  0  0  0  0  0  0  0  0  0  0
   -3.7187   -5.8139  -61.7278 O   0  0  0  0  0  0  0  0  0  0  0  0
   -2.5238   -5.7525  -61.2430 C   0  0  0  0  0  0  0  0  0  0  0  0
   -1.3600   -6.5644  -62.3363 Cl  0  0  0  0  0  0  0  0  0  0  0  0
   -0.0045   -5.5034  -60.6480 N   0  0  0  0  0  0  0  0  0  0  0  0
    1.2569   -5.1480  -60.5033 C   0  0  0  0  0  0  0  0  0  0  0  0
    2.0403   -4.8481  -61.6294 C   0  0  0  0  0  0  0  0  0  0  0  0
    3.3473   -4.4827  -61.4397 C   0  0  0  0  0  0  0  0  0  0  0  0
    3.8970   -4.4057  -60.1832 C   0  0  0  0  0  0  0  0  0  0  0  0
    3.0984   -4.7084  -59.0806 C   0  0  0  0  0  0  0  0  0  0  0  0
    1.7966   -5.0758  -59.2195 C   0  0  0  0  0  0  0  0  0  0  0  0
  1  2  1  0
  2  3  1  0
  3  4  1  0
  4  5  1  0
  5  6  2  0
  6  7  1  0
  7  8  1  0
  8  9  1  0
  9 10  2  0
 10 11  1  0
 11 12  2  0
 12 13  1  0
 13 14  1  0
 12 15  1  0
 15 16  1  0
 16 17  1  0
 17 18  1  0
 18 19  1  0
 15 20  1  0
 20 21  1  0
 21 22  1  0
  7 23  2  0
 23 24  1  0
 24 25  2  0
 25 26  1  0
 26 27  2  0
 27 28  1  0
 28 29  2  0
 29  5  1  0
 21  8  1  0
 29 24  1  0
 19  9  1  0
M  END
$$$$
