
     RDKit          3D

 14 14  0  0  0  0  0  0  0  0999 V2000
  151.7320  153.5121  166.2457 O   0  0  0  0  0  0  0  0  0  0  0  0
  151.8911  153.0929  167.5768 C   0  0  0  0  0  0  0  0  0  0  0  0
  153.2776  152.5425  167.7055 C   0  0  0  0  0  0  0  0  0  0  0  0
  153.4701  151.9804  169.0187 N   0  0  0  0  0  0  0  0  0  0  0  0
  154.7197  151.4323  169.4071 C   0  0  0  0  0  0  0  0  0  0  0  0
  154.8911  151.0053  170.6325 N   0  0  0  0  0  0  0  0  0  0  0  0
  156.1189  150.3888  170.9944 C   0  0  0  0  0  0  0  0  0  0  0  0
  156.0765  149.7173  172.1257 C   0  0  0  0  0  0  0  0  0  0  0  0
  154.5107  149.7237  172.9516 Cl  0  0  0  0  0  0  0  0  0  0  0  0
  157.1757  148.9802  172.7553 C   0  0  0  0  0  0  0  0  0  0  0  0
  158.4765  149.6740  172.5372 C   0  0  0  0  0  0  0  0  0  0  0  0
  159.0364  150.0811  171.4073 C   0  0  0  0  0  0  0  0  0  0  0  0
  158.4371  149.9150  170.0406 C   0  0  0  0  0  0  0  0  0  0  0  0
  157.1670  150.6223  170.0491 N   0  0  0  0  0  0  0  0  0  0  0  0
  1  2  1  0
  2  3  1  0
  3  4  1  0
  4  5  1  0
  5  6  2  3
  6  7  1  0
  7  8  2  0
  8  9  1  0
  8 10  1  0
 10 11  1  0
 11 12  2  0
 12 13  1  0
 13 14  1  0
 14  7  1  0
M  END
$$$$
