
     RDKit          3D

 28 30  0  0  0  0  0  0  0  0999 V2000
   27.7854   27.4017   23.4070 C   0  0  0  0  0  0  0  0  0  0  0  0
   27.3527   26.2844   22.6687 O   0  0  0  0  0  0  0  0  0  0  0  0
   27.8786   24.9915   22.8449 C   0  0  0  0  0  0  0  0  0  0  0  0
   28.8493   24.7417   23.7843 C   0  0  0  0  0  0  0  0  0  0  0  0
   29.3689   23.4686   23.9536 C   0  0  0  0  0  0  0  0  0  0  0  0
   28.9330   22.3919   23.1817 C   0  0  0  0  0  0  0  0  0  0  0  0
   29.5322   21.1071   23.3697 N   0  0  0  0  0  0  0  0  0  0  0  0
   29.2456   20.2917   24.4215 C   0  0  0  0  0  0  0  0  0  0  0  0
   30.0000   19.1586   24.3375 C   0  0  0  0  0  0  0  0  0  0  0  0
   30.7629   19.2633   23.2264 N   0  0  0  0  0  0  0  0  0  0  0  0
   30.4470   20.4659   22.6626 C   0  0  0  0  0  0  0  0  0  0  0  0
   31.1871   21.0289   21.1360 S   0  0  0  0  0  0  0  0  0  0  0  0
   32.4732   19.8971   20.5367 C   0  0  0  0  0  0  0  0  0  0  0  0
   33.6211   19.8456   21.4756 C   0  0  0  0  0  0  0  0  0  0  0  0
   34.4963   18.9535   21.3556 O   0  0  0  0  0  0  0  0  0  0  0  0
   33.7818   20.7805   22.5326 N   0  0  0  0  0  0  0  0  0  0  0  0
   34.8340   20.7850   23.4673 C   0  0  0  0  0  0  0  0  0  0  0  0
   35.8393   19.8214   23.3283 C   0  0  0  0  0  0  0  0  0  0  0  0
   36.9082   19.7404   24.2009 C   0  0  0  0  0  0  0  0  0  0  0  0
   37.9815   18.7275   24.0627 C   0  0  0  0  0  0  0  0  0  0  0  0
   36.9919   20.6374   25.2432 C   0  0  0  0  0  0  0  0  0  0  0  0
   38.0523   20.6107   26.1644 O   0  0  0  0  0  0  0  0  0  0  0  0
   36.0295   21.6039   25.4222 C   0  0  0  0  0  0  0  0  0  0  0  0
   36.1496   22.5709   26.5674 C   0  0  0  0  0  0  0  0  0  0  0  0
   34.9784   21.6449   24.5260 C   0  0  0  0  0  0  0  0  0  0  0  0
   33.9438   22.6898   24.7349 C   0  0  0  0  0  0  0  0  0  0  0  0
   27.9613   22.6607   22.2491 C   0  0  0  0  0  0  0  0  0  0  0  0
   27.4246   23.9536   22.0701 C   0  0  0  0  0  0  0  0  0  0  0  0
  1  2  1  0
  2  3  1  0
  3  4  2  0
  4  5  1  0
  5  6  2  0
  6  7  1  0
  7  8  1  0
  8  9  2  0
  9 10  1  0
 10 11  2  0
 11 12  1  0
 12 13  1  0
 13 14  1  0
 14 15  2  0
 14 16  1  0
 16 17  1  0
 17 18  2  0
 18 19  1  0
 19 20  1  0
 19 21  2  0
 21 22  1  0
 21 23  1  0
 23 24  1  0
 23 25  2  0
 25 26  1  0
  6 27  1  0
 27 28  2  0
 28  3  1  0
 11  7  1  0
 25 17  1  0
M  END
$$$$
