
     RDKit          3D

 23 25  0  0  0  0  0  0  0  0999 V2000
  129.2112  144.7282  150.7176 C   0  0  0  0  0  0  0  0  0  0  0  0
  128.4627  143.8007  150.6563 C   0  0  0  0  0  0  0  0  0  0  0  0
  127.5197  142.6695  150.5701 C   0  0  2  0  0  0  0  0  0  0  0  0
  127.6254  141.7813  151.7934 C   0  0  0  0  0  0  0  0  0  0  0  0
  126.9692  140.4484  151.6347 C   0  0  0  0  0  0  0  0  0  0  0  0
  127.6918  141.9575  149.3758 O   0  0  0  0  0  0  0  0  0  0  0  0
  127.4616  142.3633  148.1007 C   0  0  0  0  0  0  0  0  0  0  0  0
  127.2022  143.6447  147.7186 C   0  0  0  0  0  0  0  0  0  0  0  0
  126.9741  143.9917  146.3804 C   0  0  0  0  0  0  0  0  0  0  0  0
  126.7150  145.3085  146.0446 O   0  0  0  0  0  0  0  0  0  0  0  0
  127.0193  142.9847  145.4404 C   0  0  0  0  0  0  0  0  0  0  0  0
  127.2793  141.6630  145.7769 C   0  0  0  0  0  0  0  0  0  0  0  0
  127.3155  140.7199  144.8531 O   0  0  0  0  0  0  0  0  0  0  0  0
  127.5566  139.4557  145.1192 C   0  0  0  0  0  0  0  0  0  0  0  0
  127.5849  138.5011  144.1254 C   0  0  0  0  0  0  0  0  0  0  0  0
  127.3553  138.8464  142.7826 O   0  0  0  0  0  0  0  0  0  0  0  0
  127.8362  137.1939  144.4189 C   0  0  0  0  0  0  0  0  0  0  0  0
  128.0668  136.8175  145.7350 C   0  0  0  0  0  0  0  0  0  0  0  0
  128.0346  137.7841  146.7159 C   0  0  0  0  0  0  0  0  0  0  0  0
  127.7838  139.1127  146.4545 C   0  0  0  0  0  0  0  0  0  0  0  0
  127.7526  140.0737  147.4397 C   0  0  0  0  0  0  0  0  0  0  0  0
  127.9562  139.7756  148.6432 O   0  0  0  0  0  0  0  0  0  0  0  0
  127.4955  141.3828  147.1062 C   0  0  0  0  0  0  0  0  0  0  0  0
  1  2  3  0
  3  2  1  1
  3  4  1  0
  4  5  1  0
  3  6  1  0
  6  7  1  0
  7  8  2  0
  8  9  1  0
  9 10  1  0
  9 11  2  0
 11 12  1  0
 12 13  1  0
 13 14  1  0
 14 15  2  0
 15 16  1  0
 15 17  1  0
 17 18  2  0
 18 19  1  0
 19 20  2  0
 20 21  1  0
 21 22  2  0
 21 23  1  0
 23  7  1  0
 23 12  2  0
 20 14  1  0
M  END
$$$$
