
     RDKit          3D

 20 22  0  0  0  0  0  0  0  0999 V2000
  124.9696  136.2622  146.4747 Cl  0  0  0  0  0  0  0  0  0  0  0  0
  126.2293  137.0604  147.4252 C   0  0  0  0  0  0  0  0  0  0  0  0
  125.9535  137.6378  148.5844 C   0  0  0  0  0  0  0  0  0  0  0  0
  127.0305  138.2948  149.3547 C   0  0  0  0  0  0  0  0  0  0  0  0
  126.8602  139.7205  149.5185 N   0  0  0  0  0  0  0  0  0  0  0  0
  127.1382  140.6295  148.4373 C   0  0  0  0  0  0  0  0  0  0  0  0
  127.0598  140.2036  147.1729 N   0  0  0  0  0  0  0  0  0  0  0  0
  127.3005  140.9460  146.0907 C   0  0  0  0  0  0  0  0  0  0  0  0
  127.6465  142.2158  146.2859 N   0  0  0  0  0  0  0  0  0  0  0  0
  127.7532  142.7416  147.5145 C   0  0  0  0  0  0  0  0  0  0  0  0
  128.1085  144.0502  147.7470 C   0  0  0  0  0  0  0  0  0  0  0  0
  128.2117  144.5667  149.0108 C   0  0  0  0  0  0  0  0  0  0  0  0
  127.9529  143.7539  150.0793 C   0  0  0  0  0  0  0  0  0  0  0  0
  127.5889  142.4200  149.9024 C   0  0  0  0  0  0  0  0  0  0  0  0
  127.4967  141.9422  148.6130 C   0  0  0  0  0  0  0  0  0  0  0  0
  127.1850  140.3610  144.7773 N   0  0  0  0  0  0  0  0  0  0  0  0
  126.4504  139.1069  144.6161 C   0  0  0  0  0  0  0  0  0  0  0  0
  127.2777  137.9623  144.2208 C   0  0  0  0  0  0  0  0  0  0  0  0
  127.8827  137.1044  145.0068 C   0  0  0  0  0  0  0  0  0  0  0  0
  127.8862  137.0673  146.7826 S   0  0  0  0  0  2  0  0  0  0  0  0
  1  2  1  0
  2  3  2  0
  3  4  1  0
  4  5  1  0
  5  6  1  0
  6  7  1  0
  7  8  2  0
  8  9  1  0
  9 10  2  0
 10 11  1  0
 11 12  2  0
 12 13  1  0
 13 14  2  0
 14 15  1  0
  8 16  1  0
 16 17  1  0
 17 18  1  0
 18 19  2  0
 19 20  1  0
 20  2  1  0
 15  6  2  0
 15 10  1  0
M  CHG  1  20   1
M  RAD  1  20   2
M  END
$$$$
