
     RDKit          3D

 20 22  0  0  0  0  0  0  0  0999 V2000
  126.2073  145.3940  151.2011 Cl  0  0  0  0  0  0  0  0  0  0  0  0
  127.1452  144.9165  149.7799 C   0  0  0  0  0  0  0  0  0  0  0  0
  126.6051  144.9082  148.5711 C   0  0  0  0  0  0  0  0  0  0  0  0
  127.4177  144.5053  147.4039 C   0  0  0  0  0  0  0  0  0  0  0  0
  126.9551  143.3069  146.7420 N   0  0  0  0  0  0  0  0  0  0  0  0
  127.2005  142.0059  147.3073 C   0  0  0  0  0  0  0  0  0  0  0  0
  127.3821  141.8762  148.6250 N   0  0  0  0  0  0  0  0  0  0  0  0
  127.6234  140.7296  149.2631 C   0  0  0  0  0  0  0  0  0  0  0  0
  127.6880  139.6231  148.5271 N   0  0  0  0  0  0  0  0  0  0  0  0
  127.5197  139.6443  147.1972 C   0  0  0  0  0  0  0  0  0  0  0  0
  127.5806  138.5172  146.4108 C   0  0  0  0  0  0  0  0  0  0  0  0
  127.4058  138.5618  145.0535 C   0  0  0  0  0  0  0  0  0  0  0  0
  127.1623  139.7684  144.4587 C   0  0  0  0  0  0  0  0  0  0  0  0
  127.0900  140.9425  145.2066 C   0  0  0  0  0  0  0  0  0  0  0  0
  127.2717  140.8511  146.5697 C   0  0  0  0  0  0  0  0  0  0  0  0
  127.8064  140.7277  150.6938 N   0  0  0  0  0  0  0  0  0  0  0  0
  127.3566  141.8805  151.4730 C   0  0  0  0  0  0  0  0  0  0  0  0
  128.4355  142.6509  152.1001 C   0  0  0  0  0  0  0  0  0  0  0  0
  129.0790  143.6781  151.5995 C   0  0  0  0  0  0  0  0  0  0  0  0
  128.8428  144.4462  150.0155 S   0  0  0  0  0  2  0  0  0  0  0  0
  1  2  1  0
  2  3  2  0
  3  4  1  0
  4  5  1  0
  5  6  1  0
  6  7  1  0
  7  8  2  0
  8  9  1  0
  9 10  2  0
 10 11  1  0
 11 12  2  0
 12 13  1  0
 13 14  2  0
 14 15  1  0
  8 16  1  0
 16 17  1  0
 17 18  1  0
 18 19  2  0
 19 20  1  0
 20  2  1  0
 15  6  2  0
 15 10  1  0
M  CHG  1  20   1
M  RAD  1  20   2
M  END
$$$$
