
     RDKit          3D

 21 22  0  0  0  0  0  0  0  0999 V2000
   -2.2310    4.9094  -18.1223 C   0  0  0  0  0  0  0  0  0  0  0  0
   -1.9859    4.4070  -19.4956 C   0  0  0  0  0  0  0  0  0  0  0  0
   -2.6626    4.8741  -20.5363 C   0  0  0  0  0  0  0  0  0  0  0  0
   -3.3816    6.2087  -20.4722 C   0  0  0  0  0  0  0  0  0  0  0  0
   -4.7252    6.0110  -21.0481 C   0  0  0  0  0  0  0  0  0  0  0  0
   -4.9648    6.8328  -22.2362 C   0  0  0  0  0  0  0  0  0  0  0  0
   -6.2451    6.6988  -22.8965 N   0  0  0  0  0  0  0  0  0  0  0  0
   -7.2087    5.8242  -22.3116 C   0  0  0  0  0  0  0  0  0  0  0  0
   -8.0649    5.0971  -23.3279 C   0  0  0  0  0  0  0  0  0  0  0  0
   -7.3086    4.6809  -24.3966 O   0  0  0  0  0  0  0  0  0  0  0  0
   -4.0930    7.6552  -22.7191 N   0  0  0  0  0  0  0  0  0  0  0  0
   -2.8169    7.8415  -22.1473 C   0  0  0  0  0  0  0  0  0  0  0  0
   -1.8565    8.7806  -22.7099 N   0  0  0  0  0  0  0  0  0  0  0  0
   -0.5120    8.6682  -22.3104 C   0  0  0  0  0  0  0  0  0  0  0  0
    0.4048    9.5232  -22.7158 C   0  0  0  0  0  0  0  0  0  0  0  0
    1.8213    9.4011  -22.2873 C   0  0  0  0  0  0  0  0  0  0  0  0
   -0.0204   10.5863  -23.6280 C   0  0  0  0  0  0  0  0  0  0  0  0
    1.2259   11.7225  -24.1499 Cl  0  0  0  0  0  0  0  0  0  0  0  0
   -1.2652   10.6906  -24.0358 C   0  0  0  0  0  0  0  0  0  0  0  0
   -2.3299    9.7746  -23.6323 C   0  0  0  0  0  0  0  0  0  0  0  0
   -2.5246    7.1544  -21.1072 N   0  0  0  0  0  0  0  0  0  0  0  0
  1  2  1  0
  2  3  2  3
  3  4  1  0
  4  5  1  0
  5  6  1  0
  6  7  1  0
  7  8  1  0
  8  9  1  0
  9 10  1  0
  6 11  2  0
 11 12  1  0
 12 13  1  0
 13 14  1  0
 14 15  2  0
 15 16  1  0
 15 17  1  0
 17 18  1  0
 17 19  2  0
 19 20  1  0
 12 21  2  0
 21  4  1  0
 20 13  1  0
M  END
$$$$
