
     RDKit          3D

 21 22  0  0  0  0  0  0  0  0999 V2000
   -0.3075   -9.4991  -63.9047 C   0  0  0  0  0  0  0  0  0  0  0  0
    0.2339   -8.5649  -62.8886 C   0  0  0  0  0  0  0  0  0  0  0  0
   -0.4454   -8.2653  -61.7896 C   0  0  0  0  0  0  0  0  0  0  0  0
   -0.5557   -6.8338  -61.2987 C   0  0  0  0  0  0  0  0  0  0  0  0
    0.3758   -6.6863  -60.1643 C   0  0  0  0  0  0  0  0  0  0  0  0
   -0.2982   -6.3340  -58.9131 C   0  0  0  0  0  0  0  0  0  0  0  0
    0.5203   -6.1883  -57.7290 N   0  0  0  0  0  0  0  0  0  0  0  0
   -0.1068   -5.7117  -56.5394 C   0  0  0  0  0  0  0  0  0  0  0  0
    0.8720   -5.2411  -55.4836 C   0  0  0  0  0  0  0  0  0  0  0  0
    1.7878   -4.3685  -56.0196 O   0  0  0  0  0  0  0  0  0  0  0  0
   -1.5748   -6.1574  -58.8186 N   0  0  0  0  0  0  0  0  0  0  0  0
   -2.4496   -6.2896  -59.9175 C   0  0  0  0  0  0  0  0  0  0  0  0
   -3.8841   -6.0784  -59.7827 N   0  0  0  0  0  0  0  0  0  0  0  0
   -4.3294   -5.1874  -58.7889 C   0  0  0  0  0  0  0  0  0  0  0  0
   -5.6117   -4.9967  -58.5538 C   0  0  0  0  0  0  0  0  0  0  0  0
   -6.0748   -4.0577  -57.5008 C   0  0  0  0  0  0  0  0  0  0  0  0
   -6.5667   -5.7273  -59.3888 C   0  0  0  0  0  0  0  0  0  0  0  0
   -8.2780   -5.4593  -59.0479 Cl  0  0  0  0  0  0  0  0  0  0  0  0
   -6.1709   -6.5414  -60.3412 C   0  0  0  0  0  0  0  0  0  0  0  0
   -4.7675   -6.7940  -60.6606 C   0  0  0  0  0  0  0  0  0  0  0  0
   -1.9400   -6.6031  -61.0495 N   0  0  0  0  0  0  0  0  0  0  0  0
  1  2  1  0
  2  3  2  3
  3  4  1  0
  4  5  1  0
  5  6  1  0
  6  7  1  0
  7  8  1  0
  8  9  1  0
  9 10  1  0
  6 11  2  0
 11 12  1  0
 12 13  1  0
 13 14  1  0
 14 15  2  0
 15 16  1  0
 15 17  1  0
 17 18  1  0
 17 19  2  0
 19 20  1  0
 12 21  2  0
 21  4  1  0
 20 13  1  0
M  END
$$$$
