
     RDKit          3D

 23 24  0  0  0  0  0  0  0  0999 V2000
  127.5113  134.6526  147.8153 O   0  0  0  0  0  0  0  0  0  0  0  0
  126.3827  135.4942  147.9628 C   0  0  0  0  0  0  0  0  0  0  0  0
  126.7540  136.9548  147.8242 C   0  0  0  0  0  0  0  0  0  0  0  0
  127.0303  137.2519  146.4104 N   0  0  0  0  0  0  0  0  0  0  0  0
  127.2615  138.5803  145.9592 C   0  0  0  0  0  0  0  0  0  0  0  0
  127.1950  139.5443  146.8537 N   0  0  0  0  0  0  0  0  0  0  0  0
  127.3363  140.8280  146.9057 C   0  0  0  0  0  0  0  0  0  0  0  0
  127.1974  141.6041  148.0579 N   0  0  0  0  0  0  0  0  0  0  0  0
  127.1113  143.0225  148.0899 C   0  0  0  0  0  0  0  0  0  0  0  0
  127.8185  143.5959  149.4372 C   0  0  0  0  0  0  0  0  0  0  0  0
  128.2837  143.9603  150.3403 C   0  0  0  0  0  0  0  0  0  0  0  0
  129.0416  144.5850  151.8051 Cl  0  0  0  0  0  0  0  0  0  0  0  0
  126.7908  143.8822  147.4438 C   0  0  0  0  0  0  0  0  0  0  0  0
  126.5494  145.0899  146.5346 C   0  0  0  0  0  0  0  0  0  0  0  0
  125.7882  145.9982  147.3696 C   0  0  0  0  0  0  0  0  0  0  0  0
  124.1571  146.2979  146.8212 Cl  0  0  0  0  0  0  0  0  0  0  0  0
  127.7336  141.4668  145.3241 S   0  0  0  0  0  3  0  0  0  0  0  0
  127.7983  140.1241  144.1964 C   0  0  0  0  0  0  0  0  0  0  0  0
  127.5753  138.8810  144.5981 C   0  0  0  0  0  0  0  0  0  0  0  0
  127.6061  137.7978  143.7600 C   0  0  0  0  0  0  0  0  0  0  0  0
  127.9130  137.9040  142.3445 C   0  0  0  0  0  0  0  0  0  0  0  0
  128.1961  138.9022  141.5952 C   0  0  0  0  0  0  0  0  0  0  0  0
  128.1767  140.4441  142.5843 S   0  0  0  0  0  4  0  0  0  0  0  0
  1  2  1  0
  2  3  1  0
  3  4  1  0
  4  5  1  0
  5  6  2  0
  6  7  1  0
  7  8  1  0
  8  9  1  0
  9 10  1  0
 10 11  3  0
 11 12  1  0
  9 13  2  3
 13 14  1  0
 14 15  2  3
 15 16  1  0
  7 17  2  0
 17 18  1  0
 18 19  1  0
 19 20  2  0
 20 21  1  0
 21 22  2  0
 22 23  1  0
 19  5  1  0
 23 18  2  0
M  CHG  1  17   1
M  END
$$$$
