@<TRIPOS>MOLECULE
ligand_201.pdb
 37 38 0 0 0
SMALL
GASTEIGER

@<TRIPOS>ATOM
      1  C1        -1.3550    1.3810    3.2590 C.3     1  UNL1       -0.0639
      2  C2         0.0590    0.8790    3.0150 C.3     1  UNL1       -0.0400
      3  C3         0.0690   -0.6070    2.6520 C.3     1  UNL1        0.0144
      4  N1         1.4240   -1.0950    2.3720 N.am    1  UNL1       -0.3004
      5  C4         2.2480   -1.4170    3.5260 C.3     1  UNL1        0.0035
      6  C5         2.0600   -0.9860    1.1400 C.2     1  UNL1        0.2515
      7  O1         3.2780   -1.1070    1.0020 O.2     1  UNL1       -0.2698
      8  C6         1.2420   -0.6440   -0.0450 C.ar    1  UNL1        0.0999
      9  C7         1.5340    0.4900   -0.7010 C.ar    1  UNL1        0.0180
     10  N2         0.8810    0.9410   -1.8210 N.ar    1  UNL1       -0.3597
     11  C8        -0.0830    0.1370   -2.4480 C.ar    1  UNL1        0.0502
     12  C9        -0.7230    0.5640   -3.6130 C.ar    1  UNL1       -0.0374
     13  C10       -1.7220   -0.2210   -4.2000 C.ar    1  UNL1       -0.0569
     14  C11       -2.1170   -1.4310   -3.6160 C.ar    1  UNL1       -0.0496
     15  C12       -3.1650   -2.2850   -4.2680 C.3     1  UNL1       -0.0397
     16  C13       -1.4850   -1.8600   -2.4430 C.ar    1  UNL1       -0.0460
     17  C14       -0.4850   -1.0730   -1.8580 C.ar    1  UNL1        0.0460
     18  C15        0.1790   -1.5200   -0.6020 C.ar    1  UNL1        0.2015
     19  O2        -0.1510   -2.5720   -0.0640 O.2     1  UNL1       -0.2864
     20  H1        -1.9740    1.2620    2.3640 H       1  UNL1        0.0230
     21  H2        -1.3410    2.4430    3.5230 H       1  UNL1        0.0230
     22  H3        -1.8290    0.8330    4.0800 H       1  UNL1        0.0230
     23  H4         0.6610    1.0510    3.9150 H       1  UNL1        0.0278
     24  H5         0.5170    1.4680    2.2120 H       1  UNL1        0.0278
     25  H6        -0.3490   -1.2070    3.4690 H       1  UNL1        0.0464
     26  H7        -0.5770   -0.7670    1.7870 H       1  UNL1        0.0464
     27  H8         2.5490   -0.4880    4.0190 H       1  UNL1        0.0429
     28  H9         3.1460   -1.9680    3.2350 H       1  UNL1        0.0429
     29  H10        1.6730   -2.0350    4.2220 H       1  UNL1        0.0429
     30  H11        2.3380    1.1440   -0.3690 H       1  UNL1        0.0816
     31  H12        1.3240    1.6710   -2.3670 H       1  UNL1        0.1654
     32  H13       -0.4500    1.5070   -4.0790 H       1  UNL1        0.0638
     33  H14       -2.1960    0.1240   -5.1170 H       1  UNL1        0.0621
     34  H15       -3.8890   -1.6690   -4.8110 H       1  UNL1        0.0278
     35  H16       -3.7230   -2.8580   -3.5190 H       1  UNL1        0.0278
     36  H17       -2.6960   -2.9820   -4.9690 H       1  UNL1        0.0278
     37  H18       -1.7680   -2.8040   -1.9800 H       1  UNL1        0.0628
@<TRIPOS>BOND
     1     1     2    1
     2     1    20    1
     3     1    21    1
     4     1    22    1
     5     2     3    1
     6     2    23    1
     7     2    24    1
     8     3     4    1
     9     3    25    1
    10     3    26    1
    11     4     5    1
    12     4     6   am
    13     5    27    1
    14     5    28    1
    15     5    29    1
    16     6     7    2
    17     6     8    1
    18     8     9   ar
    19     8    18   ar
    20     9    10   ar
    21     9    30    1
    22    10    11   ar
    23    10    31    1
    24    11    12   ar
    25    11    17   ar
    26    12    13   ar
    27    12    32    1
    28    13    14   ar
    29    13    33    1
    30    14    15    1
    31    14    16   ar
    32    15    34    1
    33    15    35    1
    34    15    36    1
    35    16    17   ar
    36    16    37    1
    37    17    18   ar
    38    18    19    2
