@<TRIPOS>MOLECULE
ligand_201.pdb
  103   108     1     0     0
SMALL
gas


@<TRIPOS>ATOM
      1 C1          10.5620    -1.3370     4.2370 c3         1 UNL       0.042323
      2 O1          10.2240    -1.3810     2.8570 os         1 UNL      -0.346503
      3 C2           9.0570    -0.7750     2.4760 ca         1 UNL       0.108333
      4 C3           8.0580    -0.3450     3.3570 ca         1 UNL      -0.014850
      5 C4           6.8900     0.2600     2.8640 ca         1 UNL       0.060820
      6 C5           5.8310     0.7030     3.8070 c          1 UNL       0.298681
      7 O2           5.9610     0.5720     5.0170 o          1 UNL      -0.260233
      8 O3           4.6890     1.2700     3.2420 os         1 UNL      -0.270708
      9 C6           4.5200     1.4510     1.8490 ca         1 UNL       0.127338
     10 C7           3.3400     2.0230     1.3780 ca         1 UNL       0.136687
     11 O4           2.3490     2.3420     2.2620 os         1 UNL      -0.344068
     12 C8           2.3500     3.7440     2.5250 c3         1 UNL       0.042449
     13 C9           3.1480     2.1550    -0.0020 ca         1 UNL       0.112236
     14 O5           1.9730     2.6910    -0.4540 os         1 UNL      -0.310584
     15 C10          1.2220     1.8190    -1.3180 c6         1 UNL       0.193140
     16 O6           0.7250     2.6180    -2.3990 os         1 UNL      -0.340896
     17 C11         -0.0790     1.8770    -3.3260 c6         1 UNL       0.114182
     18 C12         -0.4290     2.7900    -4.5130 c3         1 UNL       0.085378
     19 O7          -1.3380     3.8310    -4.1140 os         1 UNL      -0.313380
     20 C13         -2.5660     3.8250    -4.6960 c          1 UNL       0.257705
     21 C14         -3.3850     4.9670    -4.1860 c3         1 UNL       0.022111
     22 O8          -2.9610     3.0080    -5.5130 o          1 UNL      -0.266970
     23 C15         -1.3190     1.3280    -2.6090 c6         1 UNL       0.125249
     24 O9          -2.1150     0.5620    -3.5360 os         1 UNL      -0.307127
     25 C16         -3.4680     0.7240    -3.4400 c          1 UNL       0.258074
     26 C17         -4.1640    -0.1600    -4.4280 c3         1 UNL       0.022124
     27 O10         -4.0370     1.4680    -2.6540 o          1 UNL      -0.266956
     28 C18         -0.8590     0.4120    -1.4660 c6         1 UNL       0.128735
     29 O11         -2.0440    -0.0550    -0.7850 os         1 UNL      -0.302887
     30 C19         -2.0530    -1.3490    -0.3910 c          1 UNL       0.293288
     31 O12         -1.0960    -2.1070    -0.4070 o          1 UNL      -0.260681
     32 C20         -3.4220    -1.7610     0.0130 ca         1 UNL       0.052445
     33 C21         -4.5060    -0.8730    -0.0260 ca         1 UNL      -0.014789
     34 C22         -5.7890    -1.3430     0.2580 ca         1 UNL       0.119718
     35 O13         -6.8600    -0.4480     0.2210 os         1 UNL      -0.275485
     36 C23         -7.3030    -0.1960    -1.0740 c          1 UNL       0.262805
     37 C24         -8.4060     0.8180    -1.0160 c3         1 UNL       0.022519
     38 O14         -6.8930    -0.7100    -2.1060 o          1 UNL      -0.266539
     39 C25         -6.0020    -2.6710     0.6240 ca         1 UNL       0.147048
     40 O15         -7.2970    -3.0800     0.9440 os         1 UNL      -0.272780
     41 C26         -7.8740    -3.9130    -0.0070 c          1 UNL       0.262896
     42 C27         -9.2630    -4.2570     0.4400 c3         1 UNL       0.022521
     43 O16         -7.3580    -4.3330    -1.0340 o          1 UNL      -0.266537
     44 C28         -4.9090    -3.5350     0.7210 ca         1 UNL       0.119718
     45 O17         -5.0630    -4.8840     1.0560 os         1 UNL      -0.275485
     46 C29         -5.3720    -5.1090     2.3910 c          1 UNL       0.262805
     47 C30         -5.5650    -6.5820     2.5960 c3         1 UNL       0.022519
     48 O18         -5.4810    -4.2680     3.2720 o          1 UNL      -0.266539
     49 C31         -3.6260    -3.0970     0.3900 ca         1 UNL      -0.014789
     50 C32          0.0700     1.1760    -0.5100 c6         1 UNL       0.147776
     51 O19          0.6520     0.2520     0.4400 os         1 UNL      -0.304557
     52 C33          0.0360     0.1620     1.6500 c          1 UNL       0.258163
     53 C34          0.7540    -0.8240     2.5220 c3         1 UNL       0.022126
     54 O20         -0.9800     0.7590     1.9750 o          1 UNL      -0.266955
     55 C35          4.1700     1.8050    -0.8870 ca         1 UNL      -0.014702
     56 C36          5.3560     1.2420    -0.3930 ca         1 UNL       0.060822
     57 C37          6.4300     0.8280    -1.3320 c          1 UNL       0.298681
     58 O21          6.3230     1.0100    -2.5360 o          1 UNL      -0.260233
     59 O22          7.5490     0.2180    -0.7670 os         1 UNL      -0.270708
     60 C38          7.7090     0.0200     0.6250 ca         1 UNL       0.127335
     61 C39          8.8650    -0.6060     1.0960 ca         1 UNL       0.136538
     62 O23          9.8340    -0.9800     0.2020 os         1 UNL      -0.344069
     63 C40          9.6780    -2.3530    -0.1490 c3         1 UNL       0.042449
     64 C41          6.7160     0.4450     1.4970 ca         1 UNL       0.032540
     65 C42          5.5260     1.0540     0.9770 ca         1 UNL       0.032540
     66 H1          11.5620    -1.7690     4.3490 h1         1 UNL       0.053550
     67 H2           9.8690    -1.9420     4.8320 h1         1 UNL       0.053550
     68 H3          10.6010    -0.3060     4.6010 h1         1 UNL       0.053550
     69 H4           8.1580    -0.4760     4.4310 ha         1 UNL       0.066037
     70 H5           3.3180     4.0710     2.9220 h1         1 UNL       0.053552
     71 H6           2.0900     4.3210     1.6310 h1         1 UNL       0.053552
     72 H7           1.5920     3.9400     3.2870 h1         1 UNL       0.053552
     73 H8           1.8590     1.0310    -1.7420 h2         1 UNL       0.095797
     74 H9           0.5270     1.0550    -3.7280 h1         1 UNL       0.065869
     75 H10         -0.8180     2.1910    -5.3430 h1         1 UNL       0.060222
     76 H11          0.4770     3.2940    -4.8680 h1         1 UNL       0.060222
     77 H12         -3.5160     4.8760    -3.1070 hc         1 UNL       0.033645
     78 H13         -4.3710     4.9440    -4.6530 hc         1 UNL       0.033645
     79 H14         -2.8970     5.9100    -4.4420 hc         1 UNL       0.033645
     80 H15         -1.8910     2.1610    -2.1800 h1         1 UNL       0.066827
     81 H16         -3.7830     0.0350    -5.4340 hc         1 UNL       0.033645
     82 H17         -5.2350     0.0580    -4.4170 hc         1 UNL       0.033645
     83 H18         -4.0130    -1.2070    -4.1550 hc         1 UNL       0.033645
     84 H19         -0.3320    -0.4490    -1.8980 h1         1 UNL       0.066974
     85 H20         -4.3710     0.1700    -0.3010 ha         1 UNL       0.066036
     86 H21         -9.2480     0.4170    -0.4470 hc         1 UNL       0.033659
     87 H22         -8.7450     1.0440    -2.0300 hc         1 UNL       0.033659
     88 H23         -8.0360     1.7400    -0.5600 hc         1 UNL       0.033659
     89 H24         -9.8280    -3.3420     0.6350 hc         1 UNL       0.033659
     90 H25         -9.7720    -4.8120    -0.3550 hc         1 UNL       0.033659
     91 H26         -9.2180    -4.8800     1.3350 hc         1 UNL       0.033659
     92 H27         -6.4120    -6.9270     2.0000 hc         1 UNL       0.033659
     93 H28         -4.6550    -7.1200     2.3190 hc         1 UNL       0.033659
     94 H29         -5.7780    -6.7760     3.6510 hc         1 UNL       0.033659
     95 H30         -2.7930    -3.7950     0.4170 ha         1 UNL       0.066036
     96 H31         -0.4830     1.9660     0.0130 h1         1 UNL       0.069426
     97 H32          0.5370    -1.8390     2.1830 hc         1 UNL       0.033645
     98 H33          1.8300    -0.6370     2.4970 hc         1 UNL       0.033645
     99 H34          0.4180    -0.7080     3.5560 hc         1 UNL       0.033645
    100 H35          4.0490     1.9690    -1.9570 ha         1 UNL       0.066040
    101 H36          8.6850    -2.5490    -0.5750 h1         1 UNL       0.053552
    102 H37         10.4270    -2.5880    -0.9130 h1         1 UNL       0.053552
    103 H38          9.8530    -3.0050     0.7100 h1         1 UNL       0.053552
@<TRIPOS>BOND
     1     1     2 1   
     2     1    66 1   
     3     1    67 1   
     4     1    68 1   
     5     2     3 1   
     6     3     4 ar  
     7     3    61 ar  
     8     4     5 ar  
     9     4    69 1   
    10     5     6 1   
    11     5    64 ar  
    12     6     7 2   
    13     6     8 1   
    14     8     9 1   
    15     9    10 ar  
    16     9    65 ar  
    17    10    11 1   
    18    10    13 ar  
    19    11    12 1   
    20    12    70 1   
    21    12    71 1   
    22    12    72 1   
    23    13    14 1   
    24    13    55 ar  
    25    14    15 1   
    26    15    16 1   
    27    15    50 1   
    28    15    73 1   
    29    16    17 1   
    30    17    18 1   
    31    17    23 1   
    32    17    74 1   
    33    18    19 1   
    34    18    75 1   
    35    18    76 1   
    36    19    20 1   
    37    20    21 1   
    38    20    22 2   
    39    21    77 1   
    40    21    78 1   
    41    21    79 1   
    42    23    24 1   
    43    23    28 1   
    44    23    80 1   
    45    24    25 1   
    46    25    26 1   
    47    25    27 2   
    48    26    81 1   
    49    26    82 1   
    50    26    83 1   
    51    28    29 1   
    52    28    50 1   
    53    28    84 1   
    54    29    30 1   
    55    30    31 2   
    56    30    32 1   
    57    32    33 ar  
    58    32    49 ar  
    59    33    34 ar  
    60    33    85 1   
    61    34    35 1   
    62    34    39 ar  
    63    35    36 1   
    64    36    37 1   
    65    36    38 2   
    66    37    86 1   
    67    37    87 1   
    68    37    88 1   
    69    39    40 1   
    70    39    44 ar  
    71    40    41 1   
    72    41    42 1   
    73    41    43 2   
    74    42    89 1   
    75    42    90 1   
    76    42    91 1   
    77    44    45 1   
    78    44    49 ar  
    79    45    46 1   
    80    46    47 1   
    81    46    48 2   
    82    47    92 1   
    83    47    93 1   
    84    47    94 1   
    85    49    95 1   
    86    50    51 1   
    87    50    96 1   
    88    51    52 1   
    89    52    53 1   
    90    52    54 2   
    91    53    97 1   
    92    53    98 1   
    93    53    99 1   
    94    55    56 ar  
    95    55   100 1   
    96    56    57 1   
    97    56    65 ar  
    98    57    58 2   
    99    57    59 1   
   100    59    60 1   
   101    60    61 ar  
   102    60    64 ar  
   103    61    62 1   
   104    62    63 1   
   105    63   101 1   
   106    63   102 1   
   107    63   103 1   
   108    64    65 1   
@<TRIPOS>SUBSTRUCTURE
     1 UNL         1 TEMP              0 ****  ****    0 ROOT
