@<TRIPOS>MOLECULE
ligand_201.pdb
   37    38     1     0     0
SMALL
bcc


@<TRIPOS>ATOM
      1 C1          -1.3550     1.3810     3.2590 c3         1 UNL      -0.092100
      2 C2           0.0590     0.8790     3.0150 c3         1 UNL      -0.105400
      3 C3           0.0690    -0.6070     2.6520 c3         1 UNL       0.097000
      4 N1           1.4240    -1.0950     2.3720 n          1 UNL      -0.456800
      5 C4           2.2480    -1.4170     3.5260 c3         1 UNL       0.077300
      6 C5           2.0600    -0.9860     1.1400 c          1 UNL       0.699300
      7 O1           3.2780    -1.1070     1.0020 o          1 UNL      -0.622100
      8 C6           1.2420    -0.6440    -0.0450 cc         1 UNL      -0.333400
      9 C7           1.5340     0.4900    -0.7010 cd         1 UNL       0.161000
     10 N2           0.8810     0.9410    -1.8210 na         1 UNL      -0.608400
     11 C8          -0.0830     0.1370    -2.4480 ca         1 UNL       0.166600
     12 C9          -0.7230     0.5640    -3.6130 ca         1 UNL      -0.186000
     13 C10         -1.7220    -0.2210    -4.2000 ca         1 UNL      -0.074000
     14 C11         -2.1170    -1.4310    -3.6160 ca         1 UNL      -0.114300
     15 C12         -3.1650    -2.2850    -4.2680 c3         1 UNL      -0.050800
     16 C13         -1.4850    -1.8600    -2.4430 ca         1 UNL      -0.047000
     17 C14         -0.4850    -1.0730    -1.8580 ca         1 UNL      -0.192600
     18 C15          0.1790    -1.5200    -0.6020 c          1 UNL       0.600900
     19 O2          -0.1510    -2.5720    -0.0640 o          1 UNL      -0.562100
     20 H1          -1.9740     1.2620     2.3640 hc         1 UNL       0.035367
     21 H2          -1.3410     2.4430     3.5230 hc         1 UNL       0.035367
     22 H3          -1.8290     0.8330     4.0800 hc         1 UNL       0.035367
     23 H4           0.6610     1.0510     3.9150 hc         1 UNL       0.041700
     24 H5           0.5170     1.4680     2.2120 hc         1 UNL       0.041700
     25 H6          -0.3490    -1.2070     3.4690 h1         1 UNL       0.058700
     26 H7          -0.5770    -0.7670     1.7870 h1         1 UNL       0.058700
     27 H8           2.5490    -0.4880     4.0190 h1         1 UNL       0.044700
     28 H9           3.1460    -1.9680     3.2350 h1         1 UNL       0.044700
     29 H10          1.6730    -2.0350     4.2220 h1         1 UNL       0.044700
     30 H11          2.3380     1.1440    -0.3690 h4         1 UNL       0.169000
     31 H12          1.3240     1.6710    -2.3670 hn         1 UNL       0.455800
     32 H13         -0.4500     1.5070    -4.0790 ha         1 UNL       0.136000
     33 H14         -2.1960     0.1240    -5.1170 ha         1 UNL       0.138000
     34 H15         -3.8890    -1.6690    -4.8110 hc         1 UNL       0.047033
     35 H16         -3.7230    -2.8580    -3.5190 hc         1 UNL       0.047033
     36 H17         -2.6960    -2.9820    -4.9690 hc         1 UNL       0.047033
     37 H18         -1.7680    -2.8040    -1.9800 ha         1 UNL       0.163000
@<TRIPOS>BOND
     1     1     2 1   
     2     1    20 1   
     3     1    21 1   
     4     1    22 1   
     5     2     3 1   
     6     2    23 1   
     7     2    24 1   
     8     3     4 1   
     9     3    25 1   
    10     3    26 1   
    11     4     5 1   
    12     4     6 1   
    13     5    27 1   
    14     5    28 1   
    15     5    29 1   
    16     6     7 2   
    17     6     8 1   
    18     8     9 2   
    19     8    18 1   
    20     9    10 1   
    21     9    30 1   
    22    10    11 1   
    23    10    31 1   
    24    11    12 ar  
    25    11    17 ar  
    26    12    13 ar  
    27    12    32 1   
    28    13    14 ar  
    29    13    33 1   
    30    14    15 1   
    31    14    16 ar  
    32    15    34 1   
    33    15    35 1   
    34    15    36 1   
    35    16    17 ar  
    36    16    37 1   
    37    17    18 1   
    38    18    19 2   
@<TRIPOS>SUBSTRUCTURE
     1 UNL         1 TEMP              0 ****  ****    0 ROOT
