
     RDKit          3D

 24 27  0  0  0  0  0  0  0  0999 V2000
  157.2888  155.4418  150.5052 Cl  0  0  0  0  0  0  0  0  0  0  0  0
  156.8204  154.2145  149.3295 C   0  0  0  0  0  0  0  0  0  0  0  0
  155.5197  154.1025  148.8914 C   0  0  0  0  0  0  0  0  0  0  0  0
  155.1531  153.1523  147.9800 C   0  0  0  0  0  0  0  0  0  0  0  0
  156.0734  152.2444  147.4433 C   0  0  0  0  0  0  0  0  0  0  0  0
  155.5903  151.3102  146.5170 N   0  0  0  0  0  0  0  0  0  0  0  0
  154.2215  151.0509  146.2002 C   0  0  0  0  0  0  0  0  0  0  0  0
  153.2691  151.9101  146.6134 N   0  0  0  0  0  0  0  0  0  0  0  0
  151.9595  151.7770  146.3799 C   0  0  0  0  0  0  0  0  0  0  0  0
  150.9736  152.7569  146.8850 C   0  0  0  0  0  0  0  0  0  0  0  0
  151.5494  154.0137  147.4417 C   0  0  0  0  0  0  0  0  0  0  0  0
  151.8626  153.8926  148.9161 C   0  0  0  0  0  0  0  0  0  0  0  0
  151.0195  152.8700  149.6413 C   0  0  0  0  0  0  0  0  0  0  0  0
  150.8782  154.1288  149.8270 N   0  0  0  0  0  0  0  0  0  0  0  0
  151.5334  150.6881  145.6649 C   0  0  0  0  0  0  0  0  0  0  0  0
  150.2097  150.4569  145.3577 C   0  0  0  0  0  0  0  0  0  0  0  0
  149.7806  149.3558  144.6258 C   0  0  0  0  0  0  0  0  0  0  0  0
  150.7536  148.4789  144.2057 C   0  0  0  0  0  0  0  0  0  0  0  0
  152.0711  148.7071  144.5093 C   0  0  0  0  0  0  0  0  0  0  0  0
  152.5036  149.8052  145.2396 C   0  0  0  0  0  0  0  0  0  0  0  0
  153.7964  149.9995  145.5092 N   0  0  0  0  0  0  0  0  0  0  0  0
  157.3499  152.3618  147.8798 C   0  0  0  0  0  0  0  0  0  0  0  0
  157.7398  153.3289  148.8118 C   0  0  0  0  0  0  0  0  0  0  0  0
  159.4005  153.4067  149.3149 Cl  0  0  0  0  0  0  0  0  0  0  0  0
  1  2  1  0
  2  3  2  0
  3  4  1  0
  4  5  2  0
  5  6  1  0
  6  7  1  0
  7  8  2  0
  8  9  1  0
  9 10  1  0
 10 11  1  0
 11 12  1  0
 12 13  1  0
 13 14  2  0
  9 15  2  0
 15 16  1  0
 16 17  2  0
 17 18  1  0
 18 19  2  0
 19 20  1  0
 20 21  2  0
  5 22  1  0
 22 23  2  0
 23 24  1  0
 23  2  1  0
 21  7  1  0
 14 12  1  0
 20 15  1  0
M  END
$$$$
