
     RDKit          3D

 24 27  0  0  0  0  0  0  0  0999 V2000
  171.5435  146.9101  152.2399 Cl  0  0  0  0  0  0  0  0  0  0  0  0
  170.6590  145.5064  152.8358 C   0  0  0  0  0  0  0  0  0  0  0  0
  170.7541  145.1054  154.1498 C   0  0  0  0  0  0  0  0  0  0  0  0
  170.0697  144.0177  154.6151 C   0  0  0  0  0  0  0  0  0  0  0  0
  169.2380  143.2542  153.7876 C   0  0  0  0  0  0  0  0  0  0  0  0
  168.5841  142.1585  154.3672 N   0  0  0  0  0  0  0  0  0  0  0  0
  168.6235  141.7696  155.7414 C   0  0  0  0  0  0  0  0  0  0  0  0
  169.3162  142.5160  156.6241 N   0  0  0  0  0  0  0  0  0  0  0  0
  169.4270  142.2563  157.9309 C   0  0  0  0  0  0  0  0  0  0  0  0
  170.2233  143.1169  158.8323 C   0  0  0  0  0  0  0  0  0  0  0  0
  170.7235  144.3844  158.2288 C   0  0  0  0  0  0  0  0  0  0  0  0
  172.1902  144.3043  157.8695 C   0  0  0  0  0  0  0  0  0  0  0  0
  172.9615  143.2751  158.6622 C   0  0  0  0  0  0  0  0  0  0  0  0
  173.1248  144.5333  158.8333 N   0  0  0  0  0  0  0  0  0  0  0  0
  168.7924  141.1489  158.4303 C   0  0  0  0  0  0  0  0  0  0  0  0
  168.8307  140.7922  159.7612 C   0  0  0  0  0  0  0  0  0  0  0  0
  168.1801  139.6728  160.2669 C   0  0  0  0  0  0  0  0  0  0  0  0
  167.4744  138.9111  159.3647 C   0  0  0  0  0  0  0  0  0  0  0  0
  167.4340  139.2643  158.0405 C   0  0  0  0  0  0  0  0  0  0  0  0
  168.0822  140.3811  157.5316 C   0  0  0  0  0  0  0  0  0  0  0  0
  168.0138  140.6989  156.2370 N   0  0  0  0  0  0  0  0  0  0  0  0
  169.1506  143.6559  152.4973 C   0  0  0  0  0  0  0  0  0  0  0  0
  169.8448  144.7664  152.0068 C   0  0  0  0  0  0  0  0  0  0  0  0
  169.6726  145.2093  150.3362 Cl  0  0  0  0  0  0  0  0  0  0  0  0
  1  2  1  0
  2  3  2  0
  3  4  1  0
  4  5  2  0
  5  6  1  0
  6  7  1  0
  7  8  2  0
  8  9  1  0
  9 10  1  0
 10 11  1  0
 11 12  1  0
 12 13  1  0
 13 14  2  0
  9 15  2  0
 15 16  1  0
 16 17  2  0
 17 18  1  0
 18 19  2  0
 19 20  1  0
 20 21  2  0
  5 22  1  0
 22 23  2  0
 23 24  1  0
 23  2  1  0
 21  7  1  0
 14 12  1  0
 20 15  1  0
M  END
$$$$
