
     RDKit          3D

 15 16  0  0  0  0  0  0  0  0999 V2000
  126.7070  140.8707  145.9211 C   0  0  0  0  0  0  0  0  0  0  0  0
  127.3222  139.5802  145.4951 C   0  0  0  0  0  0  0  0  0  0  0  0
  128.5116  139.2240  146.3329 C   0  0  0  0  0  0  0  0  0  0  0  0
  126.3640  138.5650  145.6734 O   0  0  0  0  0  0  0  0  0  0  0  0
  127.7204  139.6190  144.0448 C   0  0  0  0  0  0  0  0  0  0  0  0
  127.9451  138.5186  143.3656 C   0  0  0  0  0  0  0  0  0  0  0  0
  128.3399  138.4695  141.9641 C   0  0  0  0  0  0  0  0  0  0  0  0
  128.9476  139.5019  141.3222 C   0  0  0  0  0  0  0  0  0  0  0  0
  129.2808  139.3510  139.9893 C   0  0  0  0  0  0  0  0  0  0  0  0
  129.0157  138.1910  139.2987 C   0  0  0  0  0  0  0  0  0  0  0  0
  129.2325  137.7696  137.9893 C   0  0  0  0  0  0  0  0  0  0  0  0
  128.7435  136.4880  137.8891 C   0  0  0  0  0  0  0  0  0  0  0  0
  128.2450  136.1123  139.0601 N   0  0  0  0  0  0  0  0  0  0  0  0
  128.4006  137.1371  139.9362 C   0  0  0  0  0  0  0  0  0  0  0  0
  128.0682  137.2872  141.2651 C   0  0  0  0  0  0  0  0  0  0  0  0
  1  2  1  0
  2  3  1  0
  2  4  1  0
  2  5  1  0
  5  6  2  0
  6  7  1  0
  7  8  2  0
  8  9  1  0
  9 10  2  0
 10 11  1  0
 11 12  2  0
 12 13  1  0
 13 14  1  0
 14 15  2  0
 15  7  1  0
 14 10  1  0
M  END
$$$$
