
     RDKit          3D

 26 28  0  0  0  0  0  0  0  0999 V2000
   28.8581   25.9239   14.5574 C   0  0  0  0  0  0  0  0  0  0  0  0
   29.1950   24.6537   15.0744 O   0  0  0  0  0  0  0  0  0  0  0  0
   30.5269   24.2753   15.0486 C   0  0  0  0  0  0  0  0  0  0  0  0
   31.6397   25.0037   14.6872 C   0  0  0  0  0  0  0  0  0  0  0  0
   32.9082   24.4652   14.7217 C   0  0  0  0  0  0  0  0  0  0  0  0
   34.0309   25.3419   14.3088 C   0  0  2  0  0  0  0  0  0  0  0  0
   35.2313   25.1844   15.2157 C   0  0  0  0  0  0  0  0  0  0  0  0
   35.9119   26.4806   15.4448 C   0  0  0  0  0  0  0  0  0  0  0  0
   36.7506   26.6025   16.3670 O   0  0  0  0  0  0  0  0  0  0  0  0
   35.6234   27.6393   14.6076 C   0  0  0  0  0  0  0  0  0  0  0  0
   36.5855   28.6349   14.4170 C   0  0  0  0  0  0  0  0  0  0  0  0
   36.2765   29.7111   13.6210 C   0  0  0  0  0  0  0  0  0  0  0  0
   35.0534   29.8296   13.0135 C   0  0  0  0  0  0  0  0  0  0  0  0
   34.6679   30.8709   12.2050 O   0  0  0  0  0  0  0  0  0  0  0  0
   34.0761   28.8544   13.1854 C   0  0  0  0  0  0  0  0  0  0  0  0
   34.3941   27.7637   13.9938 C   0  0  0  0  0  0  0  0  0  0  0  0
   33.5642   26.6815   14.2953 O   0  0  0  0  0  0  0  0  0  0  0  0
   33.0593   23.1363   15.1376 C   0  0  0  0  0  0  0  0  0  0  0  0
   31.9571   22.3927   15.5027 C   0  0  0  0  0  0  0  0  0  0  0  0
   32.2637   20.9992   15.9170 C   0  0  0  0  0  0  0  0  0  0  0  0
   33.3898   20.4294   15.1352 C   0  0  0  0  0  0  0  0  0  0  0  0
   34.1535   19.3610   15.0112 C   0  0  0  0  0  0  0  0  0  0  0  0
   33.7262   17.9478   15.3454 C   0  0  0  0  0  0  0  0  0  0  0  0
   35.5674   19.4998   14.5042 C   0  0  0  0  0  0  0  0  0  0  0  0
   30.6776   22.9494   15.4640 C   0  0  0  0  0  0  0  0  0  0  0  0
   29.6245   22.1161   15.8539 O   0  0  0  0  0  0  0  0  0  0  0  0
  1  2  1  0
  2  3  1  0
  3  4  2  0
  4  5  1  0
  6  5  1  1
  6  7  1  0
  7  8  1  0
  8  9  2  0
  8 10  1  0
 10 11  2  0
 11 12  1  0
 12 13  2  0
 13 14  1  0
 13 15  1  0
 15 16  2  0
 16 17  1  0
  5 18  2  0
 18 19  1  0
 19 20  1  0
 20 21  1  0
 21 22  2  3
 22 23  1  0
 22 24  1  0
 19 25  2  0
 25 26  1  0
 25  3  1  0
 17  6  1  0
 16 10  1  0
M  END
$$$$
