
     RDKit          3D

 16 16  0  0  0  0  0  0  0  0999 V2000
  127.2725  134.8411  145.6212 C   0  0  0  0  0  0  0  0  0  0  0  0
  126.3301  135.9764  145.3546 C   0  0  0  0  0  0  0  0  0  0  0  0
  127.0106  137.1442  144.6751 C   0  0  0  0  0  0  0  0  0  0  0  0
  127.3426  138.0749  145.7154 O   0  0  0  0  0  0  0  0  0  0  0  0
  127.3936  139.4094  145.4344 C   0  0  0  0  0  0  0  0  0  0  0  0
  127.3836  139.7760  144.2396 O   0  0  0  0  0  0  0  0  0  0  0  0
  127.4589  140.3768  146.5460 C   0  0  0  0  0  0  0  0  0  0  0  0
  127.3597  141.6553  146.2973 C   0  0  0  0  0  0  0  0  0  0  0  0
  127.3954  142.6385  147.3550 C   0  0  0  0  0  0  0  0  0  0  0  0
  127.8299  142.2664  148.6350 C   0  0  0  0  0  0  0  0  0  0  0  0
  127.8939  143.1387  149.6947 C   0  0  0  0  0  0  0  0  0  0  0  0
  127.5092  144.4544  149.4875 C   0  0  0  0  0  0  0  0  0  0  0  0
  127.5784  145.3890  150.6251 C   0  0  0  0  0  0  0  0  0  0  0  0
  128.7761  146.3006  150.5592 C   0  0  0  0  0  0  0  0  0  0  0  0
  127.0760  144.8746  148.2575 C   0  0  0  0  0  0  0  0  0  0  0  0
  127.0257  143.9540  147.2041 C   0  0  0  0  0  0  0  0  0  0  0  0
  1  2  1  0
  2  3  1  0
  3  4  1  0
  4  5  1  0
  5  6  2  0
  5  7  1  0
  7  8  2  3
  8  9  1  0
  9 10  2  0
 10 11  1  0
 11 12  2  0
 12 13  1  0
 13 14  1  0
 12 15  1  0
 15 16  2  0
 16  9  1  0
M  END
$$$$
