
     RDKit          3D

 37 42  0  0  0  0  0  0  0  0999 V2000
  128.0744  136.3792  142.6226 C   0  0  0  0  0  0  0  0  0  0  0  0
  127.8878  137.7798  142.5027 O   0  0  0  0  0  0  0  0  0  0  0  0
  127.8309  138.5854  143.6313 C   0  0  0  0  0  0  0  0  0  0  0  0
  127.6042  138.0828  144.8927 C   0  0  0  0  0  0  0  0  0  0  0  0
  127.5664  138.9796  145.9578 C   0  0  0  0  0  0  0  0  0  0  0  0
  127.7475  140.3203  145.7707 C   0  0  0  0  0  0  0  0  0  0  0  0
  127.7158  141.2684  146.8753 C   0  0  0  0  0  0  0  0  0  0  0  0
  128.1799  141.0514  148.1735 C   0  0  0  0  0  0  0  0  0  0  0  0
  127.9740  142.1453  148.9192 N   0  0  0  0  0  0  0  0  0  0  0  0
  128.0751  142.7702  150.0970 C   0  0  0  0  0  0  0  0  0  0  0  0
  128.6378  142.2356  151.3107 C   0  0  0  0  0  0  0  0  0  0  0  0
  129.2679  141.1193  151.2388 O   0  0  0  0  0  0  0  0  0  0  0  0
  128.5787  142.8010  152.5927 N   0  0  0  0  0  0  0  0  0  0  0  0
  129.4986  142.3813  153.6254 C   0  0  0  0  0  0  0  0  0  0  0  0
  130.5017  141.4668  153.3825 C   0  0  0  0  0  0  0  0  0  0  0  0
  131.3599  141.0917  154.3958 C   0  0  0  0  0  0  0  0  0  0  0  0
  131.2494  141.6055  155.6610 C   0  0  0  0  0  0  0  0  0  0  0  0
  132.3814  141.0815  156.9096 Cl  0  0  0  0  0  0  0  0  0  0  0  0
  130.2548  142.5183  155.9205 C   0  0  0  0  0  0  0  0  0  0  0  0
  129.4026  142.8899  154.9117 C   0  0  0  0  0  0  0  0  0  0  0  0
  127.5441  144.0515  149.9844 C   0  0  0  0  0  0  0  0  0  0  0  0
  127.4494  145.0766  151.0244 C   0  0  0  0  0  0  0  0  0  0  0  0
  128.5564  145.8257  151.3584 C   0  0  0  0  0  0  0  0  0  0  0  0
  128.4941  146.7971  152.3339 C   0  0  0  0  0  0  0  0  0  0  0  0
  127.2998  147.0300  152.9948 C   0  0  0  0  0  0  0  0  0  0  0  0
  127.2328  148.2672  154.2328 Cl  0  0  0  0  0  0  0  0  0  0  0  0
  126.1685  146.2986  152.6869 C   0  0  0  0  0  0  0  0  0  0  0  0
  126.2683  145.3280  151.6986 C   0  0  0  0  0  0  0  0  0  0  0  0
  127.1057  144.1982  148.6791 C   0  0  0  0  0  0  0  0  0  0  0  0
  127.3880  143.0206  148.0768 C   0  0  0  0  0  0  0  0  0  0  0  0
  127.2259  142.5142  146.8516 N   0  0  0  0  0  0  0  0  0  0  0  0
  126.6445  143.1282  145.6803 C   0  0  0  0  0  0  0  0  0  0  0  0
  125.7219  144.2404  146.1467 C   0  0  0  0  0  0  0  0  0  0  0  0
  126.5433  145.4231  146.6349 C   0  0  0  0  0  0  0  0  0  0  0  0
  126.4676  145.4176  148.1395 C   0  0  0  0  0  0  0  0  0  0  0  0
  127.9737  140.8056  144.4974 C   0  0  0  0  0  0  0  0  0  0  0  0
  128.0146  139.9390  143.4351 C   0  0  0  0  0  0  0  0  0  0  0  0
  1  2  1  0
  2  3  1  0
  3  4  2  0
  4  5  1  0
  5  6  2  0
  6  7  1  0
  7  8  2  0
  8  9  1  0
  9 10  1  0
 10 11  1  0
 11 12  2  0
 11 13  1  0
 13 14  1  0
 14 15  2  0
 15 16  1  0
 16 17  2  0
 17 18  1  0
 17 19  1  0
 19 20  2  0
 10 21  2  0
 21 22  1  0
 22 23  2  0
 23 24  1  0
 24 25  2  0
 25 26  1  0
 25 27  1  0
 27 28  2  0
 21 29  1  0
 29 30  2  0
 30 31  1  0
 31 32  1  0
 32 33  1  0
 33 34  1  0
 34 35  1  0
  6 36  1  0
 36 37  2  0
 37  3  1  0
 31  7  1  0
 30  9  1  0
 20 14  1  0
 28 22  1  0
 35 29  1  0
M  END
$$$$
