
     RDKit          3D

 24 25  0  0  0  0  0  0  0  0999 V2000
   14.1022   26.9725    7.1147 C   0  0  0  0  0  0  0  0  0  0  0  0
   13.7373   28.0527    8.1149 C   0  0  0  0  0  0  0  0  0  0  0  0
   13.4483   29.2587    7.4860 O   0  0  0  0  0  0  0  0  0  0  0  0
   14.1040   30.4462    7.6707 C   0  0  0  0  0  0  0  0  0  0  0  0
   14.2113   30.9583    8.9455 C   0  0  0  0  0  0  0  0  0  0  0  0
   14.8735   32.1695    9.1819 C   0  0  0  0  0  0  0  0  0  0  0  0
   15.4351   32.8802    8.1424 C   0  0  0  0  0  0  0  0  0  0  0  0
   16.1306   34.1571    8.4093 C   0  0  0  0  0  0  0  0  0  0  0  0
   17.3540   33.8738    9.2452 C   0  0  0  0  0  0  0  0  0  0  0  0
   15.2636   35.1500    9.0017 N   0  0  0  0  0  0  0  0  0  0  0  0
   14.2295   35.8206    8.2972 C   0  0  0  0  0  0  0  0  0  0  0  0
   14.0993   35.5137    7.0862 O   0  0  0  0  0  0  0  0  0  0  0  0
   13.3439   36.8128    8.8917 C   0  0  0  0  0  0  0  0  0  0  0  0
   12.1762   37.2338    8.3184 C   0  0  0  0  0  0  0  0  0  0  0  0
   11.3816   38.1923    8.9557 C   0  0  0  0  0  0  0  0  0  0  0  0
   11.7299   38.7483   10.1691 C   0  0  0  0  0  0  0  0  0  0  0  0
   12.9091   38.3177   10.7397 C   0  0  0  0  0  0  0  0  0  0  0  0
   13.2485   38.8657   11.9315 F   0  0  0  0  0  0  0  0  0  0  0  0
   13.6881   37.3727   10.1066 C   0  0  0  0  0  0  0  0  0  0  0  0
   15.3110   32.3420    6.8789 C   0  0  0  0  0  0  0  0  0  0  0  0
   14.6701   31.1608    6.6150 C   0  0  0  0  0  0  0  0  0  0  0  0
   14.5529   30.6301    5.3334 O   0  0  0  0  0  0  0  0  0  0  0  0
   13.7779   31.3684    4.3875 C   0  0  0  0  0  0  0  0  0  0  0  0
   13.6977   30.6734    3.0655 C   0  0  0  0  0  0  0  0  0  0  0  0
  1  2  1  0
  2  3  1  0
  3  4  1  0
  4  5  2  0
  5  6  1  0
  6  7  2  0
  7  8  1  0
  8  9  1  0
  8 10  1  0
 10 11  1  0
 11 12  2  0
 11 13  1  0
 13 14  2  0
 14 15  1  0
 15 16  2  0
 16 17  1  0
 17 18  1  0
 17 19  2  0
  7 20  1  0
 20 21  2  0
 21 22  1  0
 22 23  1  0
 23 24  1  0
 21  4  1  0
 19 13  1  0
M  END
$$$$
