
     RDKit          3D

  8  8  0  0  0  0  0  0  0  0999 V2000
  156.2226  148.3257  174.5571 C   0  0  0  0  0  0  0  0  0  0  0  0
  157.3829  149.4243  174.5823 C   0  0  0  0  0  0  0  0  0  0  0  0
  156.6303  150.6323  175.7849 Cl  0  0  0  0  0  0  0  0  0  0  0  0
  157.8117  149.7138  173.6919 C   0  0  0  0  0  0  0  0  0  0  0  0
  158.2018  149.9934  172.8454 P   0  0  0  0  0  5  0  0  0  0  0  0
  159.4865  150.8608  170.1773 Cl  0  0  0  0  0  0  0  0  0  0  0  0
  158.4213  150.1606  172.3466 C   0  0  0  0  0  0  0  0  0  0  0  0
  156.2389  150.3753  173.0606 C   0  0  0  0  0  0  0  0  0  0  0  0
  1  2  1  0
  2  3  1  0
  2  4  1  0
  4  5  3  0
  5  6  1  0
  5  7  1  0
  7  8  1  0
  8  2  1  0
M  END
$$$$
