
     RDKit          3D

 21 23  0  0  0  0  0  0  0  0999 V2000
   43.5209   28.3473   22.5341 C   0  0  0  0  0  0  0  0  0  0  0  0
   43.0451   27.2762   21.6067 C   0  0  0  0  0  0  0  0  0  0  0  0
   43.2747   27.3933   20.2477 C   0  0  0  0  0  0  0  0  0  0  0  0
   42.8558   26.4276   19.3323 C   0  0  0  0  0  0  0  0  0  0  0  0
   43.1248   26.6442   17.9763 N   0  0  0  0  0  0  0  0  0  0  0  0
   42.1068   27.0069   17.0393 C   0  0  0  0  0  0  0  0  0  0  0  0
   42.4175   27.0278   15.7543 N   0  0  0  0  0  0  0  0  0  0  0  0
   41.4092   27.4111   14.8531 C   0  0  0  0  0  0  0  0  0  0  0  0
   40.9438   27.9640   13.7206 C   0  0  0  0  0  0  0  0  0  0  0  0
   39.8027   28.3985   14.3254 C   0  0  0  0  0  0  0  0  0  0  0  0
   39.9592   27.2389   15.1746 C   0  0  0  0  0  0  0  0  0  0  0  0
   39.7669   27.2611   16.6182 C   0  0  0  0  0  0  0  0  0  0  0  0
   38.4352   27.4192   17.1905 N   0  0  0  0  0  0  0  0  0  0  0  0
   38.2373   27.3961   18.5990 C   0  0  0  0  0  0  0  0  0  0  0  0
   37.6542   26.1326   19.1499 C   0  0  0  0  0  0  0  0  0  0  0  0
   36.8151   25.6065   18.1407 O   0  0  0  0  0  0  0  0  0  0  0  0
   40.7556   27.1438   17.4262 N   0  0  0  0  0  0  0  0  0  0  0  0
   42.2006   25.3458   19.8322 C   0  0  0  0  0  0  0  0  0  0  0  0
   41.9572   25.2083   21.2126 C   0  0  0  0  0  0  0  0  0  0  0  0
   42.3819   26.1734   22.0799 C   0  0  0  0  0  0  0  0  0  0  0  0
   42.0959   26.0366   23.8146 Cl  0  0  0  0  0  0  0  0  0  0  0  0
  1  2  1  0
  2  3  2  0
  3  4  1  0
  4  5  1  0
  5  6  1  0
  6  7  2  0
  7  8  1  0
  8  9  2  0
  9 10  2  0
 10 11  1  0
 11 12  1  0
 12 13  1  0
 13 14  1  0
 14 15  1  0
 15 16  1  0
 12 17  2  0
  4 18  2  0
 18 19  1  0
 19 20  2  0
 20 21  1  0
 20  2  1  0
 17  6  1  0
 11  8  1  0
M  END
$$$$
