
     RDKit          3D

 21 23  0  0  0  0  0  0  0  0999 V2000
   17.8911   46.0037   32.0561 C   0  0  0  0  0  0  0  0  0  0  0  0
   18.7428   47.0817   32.6448 C   0  0  0  0  0  0  0  0  0  0  0  0
   18.5125   47.5074   33.9406 C   0  0  0  0  0  0  0  0  0  0  0  0
   19.2729   48.5084   34.5454 C   0  0  0  0  0  0  0  0  0  0  0  0
   18.9530   48.8776   35.8566 N   0  0  0  0  0  0  0  0  0  0  0  0
   18.4635   47.9414   36.8208 C   0  0  0  0  0  0  0  0  0  0  0  0
   18.2416   48.3691   38.0521 N   0  0  0  0  0  0  0  0  0  0  0  0
   17.7845   47.4269   38.9896 C   0  0  0  0  0  0  0  0  0  0  0  0
   17.6620   46.9066   40.2222 C   0  0  0  0  0  0  0  0  0  0  0  0
   17.6404   45.6284   39.7506 C   0  0  0  0  0  0  0  0  0  0  0  0
   17.0297   46.2050   38.5737 C   0  0  0  0  0  0  0  0  0  0  0  0
   17.3933   45.8392   37.2116 C   0  0  0  0  0  0  0  0  0  0  0  0
   17.0426   44.5307   36.6723 N   0  0  0  0  0  0  0  0  0  0  0  0
   17.3641   44.1826   35.3310 C   0  0  0  0  0  0  0  0  0  0  0  0
   16.1979   43.8732   34.4455 C   0  0  0  0  0  0  0  0  0  0  0  0
   15.3873   42.9589   35.1572 O   0  0  0  0  0  0  0  0  0  0  0  0
   18.0294   46.6500   36.4488 N   0  0  0  0  0  0  0  0  0  0  0  0
   20.2679   49.0623   33.8021 C   0  0  0  0  0  0  0  0  0  0  0  0
   20.5181   48.6425   32.4811 C   0  0  0  0  0  0  0  0  0  0  0  0
   19.7537   47.6596   31.9211 C   0  0  0  0  0  0  0  0  0  0  0  0
   20.0365   47.1075   30.2703 Cl  0  0  0  0  0  0  0  0  0  0  0  0
  1  2  1  0
  2  3  2  0
  3  4  1  0
  4  5  1  0
  5  6  1  0
  6  7  2  0
  7  8  1  0
  8  9  2  0
  9 10  2  0
 10 11  1  0
 11 12  1  0
 12 13  1  0
 13 14  1  0
 14 15  1  0
 15 16  1  0
 12 17  2  0
  4 18  2  0
 18 19  1  0
 19 20  2  0
 20 21  1  0
 20  2  1  0
 17  6  1  0
 11  8  1  0
M  END
$$$$
