
     RDKit          3D

 20 21  0  0  0  0  0  0  0  0999 V2000
   12.5503    7.5991    5.2533 O   0  0  0  0  0  0  0  0  0  0  0  0
   12.9852    6.4249    5.0166 C   0  0  0  0  0  0  0  0  0  0  0  0
   12.0730    5.4638    4.5519 N   0  0  0  0  0  0  0  0  0  0  0  0
   10.6780    5.7772    4.3364 C   0  0  0  0  0  0  0  0  0  0  0  0
   10.2030    7.0701    4.4244 C   0  0  0  0  0  0  0  0  0  0  0  0
    8.8722    7.3806    4.2204 C   0  0  0  0  0  0  0  0  0  0  0  0
    7.9578    6.3928    3.9169 C   0  0  0  0  0  0  0  0  0  0  0  0
    8.4339    5.1009    3.8292 C   0  0  0  0  0  0  0  0  0  0  0  0
    7.2638    3.8299    3.4399 Cl  0  0  0  0  0  0  0  0  0  0  0  0
    9.7625    4.7906    4.0329 C   0  0  0  0  0  0  0  0  0  0  0  0
   14.3937    6.1507    5.2404 C   0  0  0  0  0  0  0  0  0  0  0  0
   15.1711    6.9386    6.0525 C   0  0  0  0  0  0  0  0  0  0  0  0
   16.5037    6.6981    6.2781 C   0  0  0  0  0  0  0  0  0  0  0  0
   17.0955    5.6202    5.6664 C   0  0  0  0  0  0  0  0  0  0  0  0
   16.3557    4.7967    4.8396 C   0  0  0  0  0  0  0  0  0  0  0  0
   17.0213    3.6185    4.1766 C   0  0  0  0  0  0  0  0  0  0  0  0
   17.0358    2.5361    5.0201 F   0  0  0  0  0  0  0  0  0  0  0  0
   16.3636    3.3204    2.9767 F   0  0  0  0  0  0  0  0  0  0  0  0
   18.3003    4.0079    3.8106 F   0  0  0  0  0  0  0  0  0  0  0  0
   15.0283    5.0648    4.6358 C   0  0  0  0  0  0  0  0  0  0  0  0
  1  2  2  0
  2  3  1  0
  3  4  1  0
  4  5  2  0
  5  6  1  0
  6  7  2  0
  7  8  1  0
  8  9  1  0
  8 10  2  0
  2 11  1  0
 11 12  2  0
 12 13  1  0
 13 14  2  0
 14 15  1  0
 15 16  1  0
 16 17  1  0
 16 18  1  0
 16 19  1  0
 15 20  2  0
 10  4  1  0
 20 11  1  0
M  END
$$$$
