
     RDKit          3D

 18 20  0  0  0  0  0  0  0  0999 V2000
  151.5553  149.1343  174.1742 O   0  0  0  0  0  0  0  0  0  0  0  0
  152.3894  150.1167  174.6499 C   0  0  0  0  0  0  0  0  0  0  0  0
  153.8103  149.8766  174.3252 C   0  0  0  0  0  0  0  0  0  0  0  0
  154.5652  149.1704  175.0477 N   0  0  0  0  0  0  0  0  0  0  0  0
  155.9099  148.7092  175.1011 C   0  0  0  0  0  0  0  0  0  0  0  0
  156.2851  148.3938  176.5127 C   0  0  0  0  0  0  0  0  0  0  0  0
  156.0061  149.2899  177.5204 C   0  0  0  0  0  0  0  0  0  0  0  0
  156.3179  149.0721  178.8315 C   0  0  0  0  0  0  0  0  0  0  0  0
  156.9460  147.8958  179.1785 C   0  0  0  0  0  0  0  0  0  0  0  0
  157.3735  147.5601  180.8608 Cl  0  0  0  0  0  0  0  0  0  0  0  0
  157.2420  146.9728  178.1949 C   0  0  0  0  0  0  0  0  0  0  0  0
  158.0437  145.4843  178.6781 Cl  0  0  0  0  0  0  0  0  0  0  0  0
  156.9134  147.2232  176.8787 C   0  0  0  0  0  0  0  0  0  0  0  0
  156.8331  149.7354  174.6364 C   0  0  0  0  0  0  0  0  0  0  0  0
  157.7468  150.6471  174.2752 C   0  0  0  0  0  0  0  0  0  0  0  0
  156.6588  150.7324  173.5905 C   0  0  0  0  0  0  0  0  0  0  0  0
  155.4705  150.9260  172.7475 C   0  0  0  0  0  0  0  0  0  0  0  0
  154.2364  150.5470  173.0830 C   0  0  0  0  0  0  0  0  0  0  0  0
  1  2  1  0
  2  3  1  0
  3  4  2  0
  4  5  1  0
  5  6  1  0
  6  7  2  0
  7  8  1  0
  8  9  2  0
  9 10  1  0
  9 11  1  0
 11 12  1  0
 11 13  2  0
  5 14  1  0
 14 15  2  0
 15 16  2  0
 16 17  1  0
 17 18  2  0
 18  3  1  0
 13  6  1  0
 16 14  1  0
M  END
$$$$
