
     RDKit          3D

 18 20  0  0  0  0  0  0  0  0999 V2000
  152.2083  152.2813  157.3953 O   0  0  0  0  0  0  0  0  0  0  0  0
  151.2339  152.3014  158.3634 C   0  0  0  0  0  0  0  0  0  0  0  0
  149.9645  152.8938  157.8946 C   0  0  0  0  0  0  0  0  0  0  0  0
  149.9187  153.9372  157.1877 N   0  0  0  0  0  0  0  0  0  0  0  0
  148.9708  154.7914  156.5588 C   0  0  0  0  0  0  0  0  0  0  0  0
  149.5565  156.1535  156.3728 C   0  0  0  0  0  0  0  0  0  0  0  0
  149.2060  157.1801  157.2212 C   0  0  0  0  0  0  0  0  0  0  0  0
  149.6984  158.4487  157.1143 C   0  0  0  0  0  0  0  0  0  0  0  0
  150.5956  158.7305  156.1071 C   0  0  0  0  0  0  0  0  0  0  0  0
  151.2660  160.3558  155.9208 Cl  0  0  0  0  0  0  0  0  0  0  0  0
  150.9708  157.7263  155.2367 C   0  0  0  0  0  0  0  0  0  0  0  0
  152.1176  158.1259  153.9651 Cl  0  0  0  0  0  0  0  0  0  0  0  0
  150.4547  156.4541  155.3718 C   0  0  0  0  0  0  0  0  0  0  0  0
  147.7818  154.9505  157.3848 C   0  0  0  0  0  0  0  0  0  0  0  0
  146.6817  155.1891  158.1124 C   0  0  0  0  0  0  0  0  0  0  0  0
  147.1266  153.9888  158.2588 C   0  0  0  0  0  0  0  0  0  0  0  0
  147.5383  152.5997  158.5056 C   0  0  0  0  0  0  0  0  0  0  0  0
  148.7793  152.1392  158.3419 C   0  0  0  0  0  0  0  0  0  0  0  0
  1  2  1  0
  2  3  1  0
  3  4  2  0
  4  5  1  0
  5  6  1  0
  6  7  2  0
  7  8  1  0
  8  9  2  0
  9 10  1  0
  9 11  1  0
 11 12  1  0
 11 13  2  0
  5 14  1  0
 14 15  2  0
 15 16  2  0
 16 17  1  0
 17 18  2  0
 18  3  1  0
 13  6  1  0
 16 14  1  0
M  END
$$$$
