
     RDKit          3D

 18 19  0  0  0  0  0  0  0  0999 V2000
  144.5633  153.3956  157.8905 C   0  0  0  0  0  0  0  0  0  0  0  0
  145.7170  153.3255  158.8959 C   0  0  0  0  0  0  0  0  0  0  0  0
  145.3312  153.2390  160.1450 C   0  0  0  0  0  0  0  0  0  0  0  0
  146.1735  153.1523  161.3491 C   0  0  0  0  0  0  0  0  0  0  0  0
  147.2056  154.1350  161.3189 N   0  0  0  0  0  0  0  0  0  0  0  0
  148.4198  153.8833  161.5478 N   0  0  0  0  0  0  0  0  0  0  0  0
  149.5173  154.7563  161.5470 C   0  0  0  0  0  0  0  0  0  0  0  0
  150.4950  154.4735  162.4832 C   0  0  0  0  0  0  0  0  0  0  0  0
  151.6576  155.2386  162.6196 C   0  0  0  0  0  0  0  0  0  0  0  0
  151.8030  156.3044  161.7761 C   0  0  0  0  0  0  0  0  0  0  0  0
  150.8255  156.5858  160.8411 C   0  0  0  0  0  0  0  0  0  0  0  0
  149.6761  155.8296  160.7061 C   0  0  0  0  0  0  0  0  0  0  0  0
  148.7443  156.2613  159.6685 C   0  0  0  0  0  0  0  0  0  0  0  0
  148.6455  157.5580  159.4027 N   0  0  0  0  0  0  0  0  0  0  0  0
  147.8940  155.3909  158.8785 C   0  0  0  0  0  0  0  0  0  0  0  0
  147.9814  154.0944  158.7868 C   0  0  0  0  0  0  0  0  0  0  0  0
  147.0440  153.3612  158.3559 C   0  0  0  0  0  0  0  0  0  0  0  0
  147.4201  152.3166  156.9684 Cl  0  0  0  0  0  0  0  0  0  0  0  0
  1  2  1  0
  2  3  2  0
  3  4  1  0
  4  5  1  0
  5  6  2  0
  6  7  1  0
  7  8  2  0
  8  9  1  0
  9 10  2  0
 10 11  1  0
 11 12  2  0
 12 13  1  0
 13 14  2  0
 13 15  1  0
 15 16  2  0
 16 17  2  0
 17 18  1  0
 17  2  1  0
 12  7  1  0
M  END
$$$$
