
     RDKit          3D

 25 26  0  0  0  0  0  0  0  0999 V2000
  123.1837  136.4247  149.5312 C   0  0  0  0  0  0  0  0  0  0  0  0
  124.5203  135.6861  149.4723 C   0  0  0  0  0  0  0  0  0  0  0  0
  125.5705  136.6976  149.9061 C   0  0  0  0  0  0  0  0  0  0  0  0
  124.6954  135.2631  148.1843 O   0  0  0  0  0  0  0  0  0  0  0  0
  125.7430  135.8098  147.4929 C   0  0  0  0  0  0  0  0  0  0  0  0
  125.7331  135.4517  146.0236 C   0  0  0  0  0  0  0  0  0  0  0  0
  126.9627  135.9898  145.3140 C   0  0  0  0  0  0  0  0  0  0  0  0
  127.1610  137.2844  145.6541 O   0  0  0  0  0  0  0  0  0  0  0  0
  126.9891  135.6284  143.8677 C   0  0  0  0  0  0  0  0  0  0  0  0
  127.6968  136.3666  142.9986 O   0  0  0  0  0  0  0  0  0  0  0  0
  128.1374  136.4459  141.7597 C   0  0  0  0  0  0  0  0  0  0  0  0
  128.3665  135.3266  140.9933 C   0  0  0  0  0  0  0  0  0  0  0  0
  128.8340  135.3869  139.6825 C   0  0  0  0  0  0  0  0  0  0  0  0
  129.0793  136.6003  139.1246 C   0  0  0  0  0  0  0  0  0  0  0  0
  128.8642  137.7392  139.8559 C   0  0  0  0  0  0  0  0  0  0  0  0
  128.3971  137.6788  141.1644 C   0  0  0  0  0  0  0  0  0  0  0  0
  128.2046  138.9348  141.8448 C   0  0  0  0  0  0  0  0  0  0  0  0
  128.8011  139.0939  142.9735 O   0  0  0  0  0  0  0  0  0  0  0  0
  127.4429  140.0375  141.4473 N   0  0  0  0  0  0  0  0  0  0  0  0
  127.2597  141.2048  142.2690 C   0  0  0  0  0  0  0  0  0  0  0  0
  126.1298  141.9519  142.0172 C   0  0  0  0  0  0  0  0  0  0  0  0
  125.8579  143.1060  142.7599 C   0  0  0  0  0  0  0  0  0  0  0  0
  126.7249  143.5035  143.7536 C   0  0  0  0  0  0  0  0  0  0  0  0
  127.8410  142.7366  143.9785 C   0  0  0  0  0  0  0  0  0  0  0  0
  128.1186  141.5943  143.2498 C   0  0  0  0  0  0  0  0  0  0  0  0
  1  2  1  0
  2  3  1  0
  2  4  1  0
  4  5  1  0
  5  6  1  0
  6  7  1  0
  7  8  1  0
  7  9  1  0
  9 10  1  0
 10 11  1  0
 11 12  2  0
 12 13  1  0
 13 14  2  0
 14 15  1  0
 15 16  2  0
 16 17  1  0
 17 18  2  0
 17 19  1  0
 19 20  1  0
 20 21  2  0
 21 22  1  0
 22 23  2  0
 23 24  1  0
 24 25  2  0
 16 11  1  0
 25 20  1  0
M  END
$$$$
