
     RDKit          3D

 19 20  0  0  0  0  0  0  0  0999 V2000
  118.8735  148.8470  144.8717 C   0  0  0  0  0  0  0  0  0  0  0  0
  120.1809  148.5833  145.5210 C   0  0  0  0  0  0  0  0  0  0  0  0
  120.6278  147.3139  145.7577 C   0  0  0  0  0  0  0  0  0  0  0  0
  121.8733  147.1203  146.3755 C   0  0  0  0  0  0  0  0  0  0  0  0
  122.6876  148.1527  146.7649 C   0  0  0  0  0  0  0  0  0  0  0  0
  123.9478  147.9977  147.3895 N   0  0  0  0  0  0  0  0  0  0  0  0
  124.4538  146.8545  148.0243 C   0  0  0  0  0  0  0  0  0  0  0  0
  124.1395  145.7289  147.6409 O   0  0  0  0  0  0  0  0  0  0  0  0
  125.3527  146.9199  149.1397 N   0  0  0  0  0  0  0  0  0  0  0  0
  126.3738  145.9781  149.3777 C   0  0  0  0  0  0  0  0  0  0  0  0
  127.3678  146.1916  150.3012 C   0  0  0  0  0  0  0  0  0  0  0  0
  128.3486  145.2406  150.5016 C   0  0  0  0  0  0  0  0  0  0  0  0
  128.3731  144.0578  149.7971 C   0  0  0  0  0  0  0  0  0  0  0  0
  129.4541  143.0368  150.0344 C   0  0  0  0  0  0  0  0  0  0  0  0
  127.3703  143.8539  148.8723 C   0  0  0  0  0  0  0  0  0  0  0  0
  127.3910  142.6937  148.1786 F   0  0  0  0  0  0  0  0  0  0  0  0
  126.3822  144.8062  148.6671 C   0  0  0  0  0  0  0  0  0  0  0  0
  122.2092  149.4437  146.5124 C   0  0  0  0  0  0  0  0  0  0  0  0
  120.9936  149.6264  145.9095 C   0  0  0  0  0  0  0  0  0  0  0  0
  1  2  1  0
  2  3  2  0
  3  4  1  0
  4  5  2  0
  5  6  1  0
  6  7  1  0
  7  8  2  0
  7  9  1  0
  9 10  1  0
 10 11  2  0
 11 12  1  0
 12 13  2  0
 13 14  1  0
 13 15  1  0
 15 16  1  0
 15 17  2  0
  5 18  1  0
 18 19  2  0
 19  2  1  0
 17 10  1  0
M  END
$$$$
