
     RDKit          3D

 19 20  0  0  0  0  0  0  0  0999 V2000
   15.2547  -23.9864  -21.2631 C   0  0  0  0  0  0  0  0  0  0  0  0
   16.3725  -23.3443  -22.0154 C   0  0  2  0  0  0  0  0  0  0  0  0
   16.2594  -21.8671  -22.2172 C   0  0  0  0  0  0  0  0  0  0  0  0
   17.5104  -21.1155  -22.1600 C   0  0  0  0  0  0  0  0  0  0  0  0
   18.3127  -21.2782  -20.9238 C   0  0  0  0  0  0  0  0  0  0  0  0
   19.5727  -20.3922  -21.1404 C   0  0  0  0  0  0  0  0  0  0  0  0
   19.0907  -19.1230  -21.3867 O   0  0  0  0  0  0  0  0  0  0  0  0
   16.4356  -23.9246  -23.3553 N   0  0  0  0  0  0  0  0  0  0  0  0
   17.6295  -23.9398  -24.1145 C   0  0  0  0  0  0  0  0  0  0  0  0
   18.8051  -23.4563  -23.5888 C   0  0  0  0  0  0  0  0  0  0  0  0
   19.9969  -23.5009  -24.3264 C   0  0  0  0  0  0  0  0  0  0  0  0
   19.9752  -24.0263  -25.5614 N   0  0  0  0  0  0  0  0  0  0  0  0
   18.8518  -24.5111  -26.1159 C   0  0  0  0  0  0  0  0  0  0  0  0
   18.8788  -25.0390  -27.3833 C   0  0  0  0  0  0  0  0  0  0  0  0
   17.7370  -25.5423  -27.9739 C   0  0  0  0  0  0  0  0  0  0  0  0
   17.7487  -26.2808  -29.7330 Br  0  0  0  0  0  0  0  0  0  0  0  0
   16.5479  -25.5207  -27.2936 C   0  0  0  0  0  0  0  0  0  0  0  0
   16.5425  -24.9788  -26.0045 C   0  0  0  0  0  0  0  0  0  0  0  0
   17.6557  -24.4709  -25.3876 C   0  0  0  0  0  0  0  0  0  0  0  0
  2  1  1  6
  2  3  1  0
  3  4  1  0
  4  5  1  0
  5  6  1  0
  6  7  1  0
  2  8  1  0
  8  9  1  0
  9 10  2  0
 10 11  1  0
 11 12  2  0
 12 13  1  0
 13 14  2  0
 14 15  1  0
 15 16  1  0
 15 17  2  0
 17 18  1  0
 18 19  2  0
 19  9  1  0
 19 13  1  0
M  END
$$$$
