
     RDKit          3D

 24 26  0  0  0  0  0  0  0  0999 V2000
  109.7391  129.8929  154.3395 C   0  0  0  0  0  0  0  0  0  0  0  0
  110.2439  128.9051  153.3285 C   0  0  0  0  0  0  0  0  0  0  0  0
  110.9443  129.3615  152.3786 O   0  0  0  0  0  0  0  0  0  0  0  0
  109.9055  127.5721  153.5119 O   0  0  0  0  0  0  0  0  0  0  0  0
  110.6422  126.4808  152.9937 C   0  0  0  0  0  0  0  0  0  0  0  0
  110.3998  125.2673  153.8170 C   0  0  0  0  0  0  0  0  0  0  0  0
  109.3715  125.1968  154.5464 O   0  0  0  0  0  0  0  0  0  0  0  0
  111.3655  124.1761  153.7617 C   0  0  0  0  0  0  0  0  0  0  0  0
  110.9663  122.9040  154.0892 C   0  0  0  0  0  0  0  0  0  0  0  0
  109.6316  122.6724  154.4730 O   0  0  0  0  0  0  0  0  0  0  0  0
  111.9368  121.8994  154.0174 C   0  0  0  0  0  0  0  0  0  0  0  0
  113.2261  122.2525  153.6237 C   0  0  0  0  0  0  0  0  0  0  0  0
  114.1996  121.2637  153.5484 O   0  0  0  0  0  0  0  0  0  0  0  0
  113.5888  123.5387  153.3032 C   0  0  0  0  0  0  0  0  0  0  0  0
  112.6391  124.5342  153.3712 C   0  0  0  0  0  0  0  0  0  0  0  0
  112.9998  125.8355  153.0485 O   0  0  0  0  0  0  0  0  0  0  0  0
  112.0739  126.8928  152.9172 C   0  0  1  0  0  0  0  0  0  0  0  0
  112.3932  127.5587  151.6045 C   0  0  0  0  0  0  0  0  0  0  0  0
  111.2487  127.7199  150.8148 C   0  0  0  0  0  0  0  0  0  0  0  0
  111.3076  128.3167  149.5507 C   0  0  0  0  0  0  0  0  0  0  0  0
  112.5389  128.7423  149.1086 C   0  0  0  0  0  0  0  0  0  0  0  0
  112.5939  129.3316  147.8591 O   0  0  0  0  0  0  0  0  0  0  0  0
  113.6554  128.5791  149.8919 C   0  0  0  0  0  0  0  0  0  0  0  0
  113.6172  127.9991  151.1279 C   0  0  0  0  0  0  0  0  0  0  0  0
  1  2  1  0
  2  3  2  0
  2  4  1  0
  4  5  1  0
  5  6  1  0
  6  7  2  0
  6  8  1  0
  8  9  2  0
  9 10  1  0
  9 11  1  0
 11 12  2  0
 12 13  1  0
 12 14  1  0
 14 15  2  0
 15 16  1  0
 16 17  1  0
 17 18  1  6
 18 19  2  0
 19 20  1  0
 20 21  2  0
 21 22  1  0
 21 23  1  0
 23 24  2  0
 17  5  1  0
 24 18  1  0
 15  8  1  0
M  END
$$$$
