
     RDKit          3D

 24 26  0  0  0  0  0  0  0  0999 V2000
  123.7387  148.6850  119.0395 C   0  0  0  0  0  0  0  0  0  0  0  0
  122.7416  148.3768  117.9609 C   0  0  0  0  0  0  0  0  0  0  0  0
  121.5171  148.4785  118.2637 O   0  0  0  0  0  0  0  0  0  0  0  0
  123.2364  148.0052  116.7191 O   0  0  0  0  0  0  0  0  0  0  0  0
  124.1124  146.9158  116.5000 C   0  0  0  0  0  0  0  0  0  0  0  0
  124.7452  147.0340  115.1604 C   0  0  0  0  0  0  0  0  0  0  0  0
  124.7854  148.1547  114.5800 O   0  0  0  0  0  0  0  0  0  0  0  0
  125.3102  145.8402  114.5422 C   0  0  0  0  0  0  0  0  0  0  0  0
  126.2923  145.9724  113.5920 C   0  0  0  0  0  0  0  0  0  0  0  0
  126.7387  147.2574  113.2290 O   0  0  0  0  0  0  0  0  0  0  0  0
  126.7953  144.7920  113.0352 C   0  0  0  0  0  0  0  0  0  0  0  0
  126.2728  143.5778  113.4763 C   0  0  0  0  0  0  0  0  0  0  0  0
  126.7640  142.3978  112.9310 O   0  0  0  0  0  0  0  0  0  0  0  0
  125.2885  143.4851  114.4309 C   0  0  0  0  0  0  0  0  0  0  0  0
  124.7876  144.6428  114.9845 C   0  0  0  0  0  0  0  0  0  0  0  0
  123.7931  144.5552  115.9493 O   0  0  0  0  0  0  0  0  0  0  0  0
  123.3352  145.6585  116.7013 C   0  0  1  0  0  0  0  0  0  0  0  0
  123.3571  145.2136  118.1400 C   0  0  0  0  0  0  0  0  0  0  0  0
  124.4624  145.7323  118.8247 C   0  0  0  0  0  0  0  0  0  0  0  0
  124.6866  145.4500  120.1767 C   0  0  0  0  0  0  0  0  0  0  0  0
  123.7757  144.6389  120.8133 C   0  0  0  0  0  0  0  0  0  0  0  0
  124.0000  144.3619  122.1491 O   0  0  0  0  0  0  0  0  0  0  0  0
  122.6947  144.1355  120.1316 C   0  0  0  0  0  0  0  0  0  0  0  0
  122.4597  144.4001  118.8124 C   0  0  0  0  0  0  0  0  0  0  0  0
  1  2  1  0
  2  3  2  0
  2  4  1  0
  4  5  1  0
  5  6  1  0
  6  7  2  0
  6  8  1  0
  8  9  2  0
  9 10  1  0
  9 11  1  0
 11 12  2  0
 12 13  1  0
 12 14  1  0
 14 15  2  0
 15 16  1  0
 16 17  1  0
 17 18  1  1
 18 19  2  0
 19 20  1  0
 20 21  2  0
 21 22  1  0
 21 23  1  0
 23 24  2  0
 17  5  1  0
 24 18  1  0
 15  8  1  0
M  END
$$$$
