
     RDKit          3D

 21 23  0  0  0  0  0  0  0  0999 V2000
    0.7516   -7.0719  -53.9535 O   0  0  0  0  0  0  0  0  0  0  0  0
   -0.5514   -6.7743  -54.3369 C   0  0  0  0  0  0  0  0  0  0  0  0
   -0.6733   -6.5994  -55.8361 C   0  0  0  0  0  0  0  0  0  0  0  0
    0.0747   -5.4075  -56.1783 N   0  0  0  0  0  0  0  0  0  0  0  0
    0.4400   -5.2065  -57.5357 C   0  0  0  0  0  0  0  0  0  0  0  0
   -0.0828   -5.9643  -58.4370 N   0  0  0  0  0  0  0  0  0  0  0  0
    0.2295   -5.8300  -59.8123 C   0  0  0  0  0  0  0  0  0  0  0  0
   -0.5006   -6.3632  -60.8958 N   0  0  0  0  0  0  0  0  0  0  0  0
   -1.7170   -7.0869  -60.7358 C   0  0  0  0  0  0  0  0  0  0  0  0
   -1.9213   -8.2418  -61.4543 C   0  0  0  0  0  0  0  0  0  0  0  0
   -3.0994   -8.9835  -61.3288 C   0  0  0  0  0  0  0  0  0  0  0  0
   -4.0978   -8.5704  -60.4710 C   0  0  0  0  0  0  0  0  0  0  0  0
   -5.5941   -9.4823  -60.2898 Cl  0  0  0  0  0  0  0  0  0  0  0  0
   -3.8848   -7.4109  -59.7540 C   0  0  0  0  0  0  0  0  0  0  0  0
   -5.1552   -6.8884  -58.6647 Cl  0  0  0  0  0  0  0  0  0  0  0  0
   -2.7067   -6.6703  -59.8803 C   0  0  0  0  0  0  0  0  0  0  0  0
    1.3175   -5.1327  -60.1098 C   0  0  0  0  0  0  0  0  0  0  0  0
    1.6314   -4.0907  -59.3970 C   0  0  0  0  0  0  0  0  0  0  0  0
    2.0845   -2.7984  -58.9423 C   0  0  0  0  0  0  0  0  0  0  0  0
    2.1647   -3.2161  -57.7260 C   0  0  0  0  0  0  0  0  0  0  0  0
    1.3721   -4.1767  -57.9753 C   0  0  0  0  0  0  0  0  0  0  0  0
  1  2  1  0
  2  3  1  0
  3  4  1  0
  4  5  1  0
  5  6  2  0
  6  7  1  0
  7  8  1  0
  8  9  1  0
  9 10  2  0
 10 11  1  0
 11 12  2  0
 12 13  1  0
 12 14  1  0
 14 15  1  0
 14 16  2  0
  7 17  2  0
 17 18  2  0
 18 19  1  0
 19 20  2  0
 20 21  2  0
 21  5  1  0
 16  9  1  0
 21 18  1  0
M  END
$$$$
