
     RDKit          3D

 22 23  0  0  0  0  0  0  0  0999 V2000
   -7.3865   -3.0640  -57.5952 C   0  0  0  0  0  0  0  0  0  0  0  0
   -7.5580   -4.4577  -58.0972 C   0  0  0  0  0  0  0  0  0  0  0  0
   -8.3634   -4.4372  -59.3666 C   0  0  0  0  0  0  0  0  0  0  0  0
   -6.2483   -5.1214  -58.2862 N   0  0  0  0  0  0  0  0  0  0  0  0
   -6.5111   -6.5055  -58.6745 C   0  0  0  0  0  0  0  0  0  0  0  0
   -5.5680   -5.0201  -57.0173 C   0  0  0  0  0  0  0  0  0  0  0  0
   -4.5229   -6.0386  -56.7366 C   0  0  0  0  0  0  0  0  0  0  0  0
   -3.1041   -5.6100  -56.7751 C   0  0  0  0  0  0  0  0  0  0  0  0
   -2.1945   -6.7133  -56.4834 N   0  0  0  0  0  0  0  0  0  0  0  0
   -0.8027   -6.3679  -56.6391 C   0  0  0  0  0  0  0  0  0  0  0  0
   -0.4926   -6.1436  -58.0908 C   0  0  0  0  0  0  0  0  0  0  0  0
    0.2924   -5.0722  -58.5224 C   0  0  0  0  0  0  0  0  0  0  0  0
    0.3542   -5.1912  -59.8943 C   0  0  0  0  0  0  0  0  0  0  0  0
   -0.3790   -6.3053  -60.2421 C   0  0  0  0  0  0  0  0  0  0  0  0
   -0.5582   -6.7726  -61.6239 C   0  0  0  0  0  0  0  0  0  0  0  0
   -0.2424   -5.9630  -62.6977 C   0  0  0  0  0  0  0  0  0  0  0  0
   -0.4284   -6.4221  -63.9836 C   0  0  0  0  0  0  0  0  0  0  0  0
   -0.9233   -7.6741  -64.2621 C   0  0  0  0  0  0  0  0  0  0  0  0
   -1.2414   -8.4921  -63.1815 C   0  0  0  0  0  0  0  0  0  0  0  0
   -1.8803  -10.1185  -63.4447 Cl  0  0  0  0  0  0  0  0  0  0  0  0
   -1.0536   -8.0268  -61.9095 C   0  0  0  0  0  0  0  0  0  0  0  0
   -0.8522   -6.8239  -59.1371 O   0  0  0  0  0  0  0  0  0  0  0  0
  1  2  1  0
  2  3  1  0
  2  4  1  0
  4  5  1  0
  4  6  1  0
  6  7  1  0
  7  8  1  0
  8  9  1  0
  9 10  1  0
 10 11  1  0
 11 12  2  0
 12 13  1  0
 13 14  2  0
 14 15  1  0
 15 16  2  0
 16 17  1  0
 17 18  2  0
 18 19  1  0
 19 20  1  0
 19 21  2  0
 14 22  1  0
 22 11  1  0
 21 15  1  0
M  END
$$$$
