
     RDKit          3D

 13 14  0  0  0  0  0  0  0  0999 V2000
   21.6524   22.4309   26.2654 O   0  0  0  0  0  0  0  0  0  0  0  0
   21.3471   23.7522   25.9348 C   0  0  0  0  0  0  0  0  0  0  0  0
   19.8608   23.9447   25.6378 C   0  0  0  0  0  0  0  0  0  0  0  0
   19.1393   23.7768   26.8527 N   0  0  0  0  0  0  0  0  0  0  0  0
   17.7445   23.7887   26.9668 N   0  0  0  0  0  0  0  0  0  0  0  0
   16.8558   23.9252   25.9331 C   0  0  0  0  0  0  0  0  0  0  0  0
   15.6098   23.8877   26.3918 N   0  0  0  0  0  0  0  0  0  0  0  0
   15.6508   23.7244   27.7447 C   0  0  0  0  0  0  0  0  0  0  0  0
   14.6469   23.6151   28.6887 C   0  0  0  0  0  0  0  0  0  0  0  0
   15.0363   23.4387   29.9976 C   0  0  0  0  0  0  0  0  0  0  0  0
   16.3702   23.3733   30.3637 C   0  0  0  0  0  0  0  0  0  0  0  0
   17.3513   23.4863   29.4053 C   0  0  0  0  0  0  0  0  0  0  0  0
   16.9920   23.6662   28.0672 C   0  0  0  0  0  0  0  0  0  0  0  0
  1  2  1  0
  2  3  1  0
  3  4  1  0
  4  5  1  0
  5  6  1  0
  6  7  2  0
  7  8  1  0
  8  9  2  0
  9 10  1  0
 10 11  2  0
 11 12  1  0
 12 13  2  0
 13  5  1  0
 13  8  1  0
M  END
$$$$
