
     RDKit          3D

 24 26  0  0  0  0  0  0  0  0999 V2000
  152.6136  151.0416  144.7735 O   0  0  0  0  0  0  0  0  0  0  0  0
  152.6327  149.7164  145.2688 C   0  0  0  0  0  0  0  0  0  0  0  0
  153.5048  149.7454  146.5035 C   0  0  0  0  0  0  0  0  0  0  0  0
  154.7662  150.4919  146.3153 C   0  0  0  0  0  0  0  0  0  0  0  0
  155.8929  149.7784  145.9740 C   0  0  0  0  0  0  0  0  0  0  0  0
  157.0799  150.4892  145.7940 C   0  0  0  0  0  0  0  0  0  0  0  0
  157.1023  151.8748  145.9589 C   0  0  0  0  0  0  0  0  0  0  0  0
  158.2800  152.5068  145.7717 F   0  0  0  0  0  0  0  0  0  0  0  0
  155.9726  152.5815  146.2998 C   0  0  0  0  0  0  0  0  0  0  0  0
  154.8042  151.8580  146.4742 C   0  0  0  0  0  0  0  0  0  0  0  0
  151.2322  149.3454  145.5990 C   0  0  0  0  0  0  0  0  0  0  0  0
  150.7231  148.1129  144.9667 C   0  0  0  0  0  0  0  0  0  0  0  0
  151.1519  147.7835  143.6812 N   0  0  0  0  0  0  0  0  0  0  0  0
  150.2781  147.1281  142.8188 C   0  0  0  0  0  0  0  0  0  0  0  0
  149.1835  146.3485  143.3886 C   0  0  0  0  0  0  0  0  0  0  0  0
  149.3976  145.4918  144.4355 C   0  0  0  0  0  0  0  0  0  0  0  0
  148.3680  144.7603  144.9763 C   0  0  0  0  0  0  0  0  0  0  0  0
  147.0960  144.8693  144.4809 C   0  0  0  0  0  0  0  0  0  0  0  0
  146.8788  145.7311  143.4274 C   0  0  0  0  0  0  0  0  0  0  0  0
  147.9192  146.4728  142.8783 C   0  0  0  0  0  0  0  0  0  0  0  0
  147.5975  147.3796  141.7442 C   0  0  0  0  0  0  0  0  0  0  0  0
  148.4773  147.1626  140.6858 F   0  0  0  0  0  0  0  0  0  0  0  0
  152.2757  148.4465  143.1389 C   0  0  0  0  0  0  0  0  0  0  0  0
  153.2626  148.8671  144.2092 C   0  0  0  0  0  0  0  0  0  0  0  0
  1  2  1  0
  2  3  1  0
  3  4  1  0
  4  5  2  0
  5  6  1  0
  6  7  2  0
  7  8  1  0
  7  9  1  0
  9 10  2  0
  2 11  1  0
 11 12  1  0
 12 13  1  0
 13 14  1  0
 14 15  1  0
 15 16  2  0
 16 17  1  0
 17 18  2  0
 18 19  1  0
 19 20  2  0
 20 21  1  0
 21 22  1  0
 13 23  1  0
 23 24  1  0
 24  2  1  0
 10  4  1  0
 20 15  1  0
M  END
$$$$
