
     RDKit          3D

  9  9  0  0  0  0  0  0  0  0999 V2000
  138.5705  141.6875  118.0361 O   0  0  0  0  0  0  0  0  0  0  0  0
  139.9400  141.8454  118.1714 C   0  0  0  0  0  0  0  0  0  0  0  0
  140.6350  142.6898  117.3341 C   0  0  0  0  0  0  0  0  0  0  0  0
  142.0125  142.8640  117.4519 C   0  0  0  0  0  0  0  0  0  0  0  0
  142.6962  142.1739  118.4308 C   0  0  0  0  0  0  0  0  0  0  0  0
  142.0236  141.3210  119.2835 C   0  0  0  0  0  0  0  0  0  0  0  0
  142.7133  140.6483  120.2432 F   0  0  0  0  0  0  0  0  0  0  0  0
  140.6499  141.1701  119.1390 C   0  0  0  0  0  0  0  0  0  0  0  0
  140.0430  140.3262  119.9964 F   0  0  0  0  0  0  0  0  0  0  0  0
  1  2  1  0
  2  3  2  0
  3  4  1  0
  4  5  2  0
  5  6  1  0
  6  7  1  0
  6  8  2  0
  8  9  1  0
  8  2  1  0
M  END
$$$$
