
     RDKit          3D

  9  9  0  0  0  0  0  0  0  0999 V2000
  128.1991  135.8339  139.5109 O   0  0  0  0  0  0  0  0  0  0  0  0
  128.4357  137.0564  140.1179 C   0  0  0  0  0  0  0  0  0  0  0  0
  128.9749  138.1023  139.4022 C   0  0  0  0  0  0  0  0  0  0  0  0
  129.2213  139.3405  139.9920 C   0  0  0  0  0  0  0  0  0  0  0  0
  128.9177  139.5226  141.3250 C   0  0  0  0  0  0  0  0  0  0  0  0
  128.3763  138.4904  142.0654 C   0  0  0  0  0  0  0  0  0  0  0  0
  128.0829  138.6872  143.3786 F   0  0  0  0  0  0  0  0  0  0  0  0
  128.1430  137.2684  141.4467 C   0  0  0  0  0  0  0  0  0  0  0  0
  127.6137  136.2957  142.2143 F   0  0  0  0  0  0  0  0  0  0  0  0
  1  2  1  0
  2  3  2  0
  3  4  1  0
  4  5  2  0
  5  6  1  0
  6  7  1  0
  6  8  2  0
  8  9  1  0
  8  2  1  0
M  END
$$$$
