
     RDKit          3D

 28 30  0  0  0  0  0  0  0  0999 V2000
   25.0713   68.4072   13.7205 C   0  0  0  0  0  0  0  0  0  0  0  0
   24.4865   68.2690   12.5561 C   0  0  0  0  0  0  0  0  0  0  0  0
   24.9205   67.2549   11.6749 N   0  0  0  0  0  0  0  0  0  0  0  0
   25.0524   67.3896   10.3341 O   0  0  0  0  0  0  0  0  0  0  0  0
   25.6649   68.5504    9.9354 C   0  0  0  0  0  0  0  0  0  0  0  0
   24.8788   69.3154    8.9893 N   0  0  0  0  0  0  0  0  0  0  0  0
   23.6479   68.7694    8.9341 O   0  0  0  0  0  0  0  0  0  0  0  0
   22.7763   69.4767    9.7888 C   0  0  0  0  0  0  0  0  0  0  0  0
   22.5644   68.7080   11.0783 C   0  0  0  0  0  0  0  0  0  0  0  0
   23.3649   69.2277   12.2293 C   0  0  0  0  0  0  0  0  0  0  0  0
   23.8197   70.6182   12.1263 C   0  0  0  0  0  0  0  0  0  0  0  0
   23.1316   71.0325   13.1624 C   0  0  0  0  0  0  0  0  0  0  0  0
   22.5745   69.6668   13.3972 C   0  0  0  0  0  0  0  0  0  0  0  0
   21.1218   69.6681   13.1857 N   0  0  0  0  0  0  0  0  0  0  0  0
   20.3277   68.9072   14.1042 C   0  0  0  0  0  0  0  0  0  0  0  0
   20.6142   68.9589   15.3888 C   0  0  0  0  0  0  0  0  0  0  0  0
   20.8878   67.7278   16.1073 C   0  0  0  0  0  0  0  0  0  0  0  0
   21.3224   67.7054   17.3559 C   0  0  0  0  0  0  0  0  0  0  0  0
   21.8310   69.2405   18.0286 Cl  0  0  0  0  0  0  0  0  0  0  0  0
   21.3697   66.4495   18.1258 C   0  0  0  0  0  0  0  0  0  0  0  0
   19.9587   65.9604   18.4057 C   0  0  0  0  0  0  0  0  0  0  0  0
   22.1646   65.4290   17.4813 N   0  0  0  0  0  0  0  0  0  0  0  0
   21.4627   64.3842   16.8312 C   0  0  0  0  0  0  0  0  0  0  0  0
   21.9658   63.5272   15.9565 C   0  0  0  0  0  0  0  0  0  0  0  0
   23.3257   63.4688   15.4774 N   0  0  0  0  0  0  0  0  0  0  0  0
   24.2185   64.3891   15.6512 C   0  0  0  0  0  0  0  0  0  0  0  0
   24.1200   65.6962   16.3497 C   0  0  0  0  0  0  0  0  0  0  0  0
   23.4945   65.6070   17.5837 O   0  0  0  0  0  0  0  0  0  0  0  0
  1  2  2  0
  2  3  1  0
  3  4  1  0
  4  5  1  0
  5  6  1  0
  6  7  1  0
  7  8  1  0
  8  9  1  0
  9 10  1  0
 10 11  1  0
 11 12  2  0
 12 13  1  0
 13 14  1  0
 14 15  1  0
 15 16  2  3
 16 17  1  0
 17 18  2  3
 18 19  1  0
 18 20  1  0
 20 21  1  0
 20 22  1  0
 22 23  1  0
 23 24  2  0
 24 25  1  0
 25 26  2  0
 26 27  1  0
 27 28  1  0
 10  2  1  0
 28 22  1  0
 13 10  1  0
M  END
$$$$
