
     RDKit          3D

 20 22  0  0  0  0  0  0  0  0999 V2000
2414354.25003200574.00002195650.0000 O   0  0  0  0  0  0  0  0  0  0  0  0
2414353.75003200575.00002195649.7500 C   0  0  0  0  0  0  0  0  0  0  0  0
2414354.75003200575.50002195650.7500 B   0  0  0  0  0  3  0  0  0  0  0  0
2414355.00003200577.50002195650.7500 C   0  0  0  0  0  0  0  0  0  0  0  0
2414353.25003200577.50002195650.7500 N   0  0  0  0  0  0  0  0  0  0  0  0
2414352.25003200577.75002195651.7500 C   0  0  0  0  0  0  0  0  0  0  0  0
2414351.00003200578.00002195652.7500 N   0  0  0  0  0  0  0  0  0  0  0  0
2414351.25003200579.00002195653.5000 C   0  0  0  0  0  0  0  0  0  0  0  0
2414351.00003200580.25002195653.5000 C   0  0  0  0  0  0  0  0  0  0  0  0
2414348.50003200579.50002195652.5000 C   0  0  0  0  0  0  0  0  0  0  0  0
2414347.75003200577.75002195652.5000 C   0  0  0  0  0  0  0  0  0  0  0  0
2414350.25003200577.75002195652.2500 C   0  0  0  0  0  0  0  0  0  0  0  0
2414349.00003200577.25002195649.7500 Cl  0  0  0  0  0  0  0  0  0  0  0  0
2414352.75003200578.75002195650.2500 N   0  0  0  0  0  0  0  0  0  0  0  0
2414353.75003200578.75002195649.2500 C   0  0  0  0  0  0  0  0  0  0  0  0
2414353.50003200580.25002195649.0000 C   0  0  0  0  0  0  0  0  0  0  0  0
2414354.25003200579.50002195647.5000 C   0  0  0  0  0  0  0  0  0  0  0  0
2414355.50003200580.00002195647.5000 C   0  0  0  0  0  0  0  0  0  0  0  0
2414355.25003200578.25002195648.2500 C   0  0  0  0  0  0  0  0  0  0  0  0
2414354.50003200577.75002195650.0000 C   0  0  0  0  0  0  0  0  0  0  0  0
  1  2  1  0
  2  3  2  3
  3  4  1  0
  4  5  2  0
  5  6  1  0
  6  7  1  0
  7  8  1  0
  8  9  1  0
  9 10  2  0
 10 11  1  0
 11 12  1  0
 12 13  1  0
  6 14  2  0
 14 15  1  0
 15 16  2  0
 16 17  1  0
 17 18  2  0
 18 19  1  0
 19 20  2  0
 20  4  1  0
 12  7  1  0
 20 15  1  0
M  CHG  1   3  -1
M  RAD  1   3   2
M  END
$$$$
