
     RDKit          3D

 26 26  0  0  0  0  0  0  0  0999 V2000
  127.6873  145.5885  150.9822 C   0  0  0  0  0  0  0  0  0  0  0  0
  127.0119  144.5796  150.3858 C   0  0  0  0  0  0  0  0  0  0  0  0
  125.4105  144.9056  149.8706 Cl  0  0  0  0  0  0  0  0  0  0  0  0
  127.6421  143.2910  150.3142 C   0  0  0  0  0  0  0  0  0  0  0  0
  127.7524  142.3068  151.8105 Cl  0  0  0  0  0  0  0  0  0  0  0  0
  128.1467  142.7375  149.2230 C   0  0  0  0  0  0  0  0  0  0  0  0
  127.9652  141.4265  148.7277 C   0  0  0  0  0  0  0  0  0  0  0  0
  127.8374  140.2740  148.3035 C   0  0  0  0  0  0  0  0  0  0  0  0
  127.0762  139.1723  148.7774 N   0  0  0  0  0  0  0  0  0  0  0  0
  126.9564  137.9394  147.6953 B   0  0  0  0  0  0  0  0  0  0  0  0
  126.3013  136.7128  148.2836 C   0  0  0  0  0  0  0  0  0  0  0  0
  125.9796  135.7644  147.4463 C   0  0  0  0  0  0  0  0  0  0  0  0
  126.3244  136.0488  146.0329 C   0  0  0  0  0  0  0  0  0  0  0  0
  126.8476  137.0097  145.5081 C   0  0  0  0  0  0  0  0  0  0  0  0
  127.3973  138.4892  146.4161 C   0  0  0  0  0  0  0  0  0  0  0  0
  127.7454  138.9471  145.3252 C   0  0  0  0  0  0  0  0  0  0  0  0
  127.3441  140.2536  144.8269 N   0  0  0  0  0  0  0  0  0  0  0  0
  128.0218  140.8270  143.6555 C   0  0  0  0  0  0  0  0  0  0  0  0
  128.0869  139.7410  142.6482 N   0  0  0  0  0  0  0  0  0  0  0  0
  127.3411  141.8640  143.0886 N   0  0  0  0  0  0  0  0  0  0  0  0
  126.9687  142.8883  142.6671 C   0  0  0  0  0  0  0  0  0  0  0  0
  127.8877  144.0163  142.7493 O   0  0  0  0  0  0  0  0  0  0  0  0
  127.3417  145.2193  142.2475 N   0  0  0  0  0  0  0  0  0  0  0  0
  128.3315  146.2646  142.3500 C   0  0  0  0  0  0  0  0  0  0  0  0
  127.8225  147.5871  142.2621 C   0  0  0  0  0  0  0  0  0  0  0  0
  127.4076  148.7067  142.2016 O   0  0  0  0  0  3  0  0  0  0  0  0
  1  2  2  0
  2  3  1  0
  2  4  1  0
  4  5  1  0
  4  6  2  3
  6  7  1  0
  7  8  2  3
  8  9  1  0
  9 10  1  0
 10 11  1  0
 11 12  2  0
 12 13  1  0
 13 14  2  0
 14 15  1  0
 15 16  2  3
 16 17  1  0
 17 18  1  0
 18 19  1  0
 18 20  1  0
 20 21  2  3
 21 22  1  0
 22 23  1  0
 23 24  1  0
 24 25  1  0
 25 26  3  0
 15 10  1  0
M  CHG  1  26   1
M  END
$$$$
