
     RDKit          3D

 23 24  0  0  0  0  0  0  0  0999 V2000
  119.5176  150.7906  148.7271 C   0  0  0  0  0  0  0  0  0  0  0  0
  119.4865  150.3319  147.4074 C   0  0  0  0  0  0  0  0  0  0  0  0
  118.2414  149.2258  146.9042 S   0  0  0  0  0  4  0  0  0  0  0  0
  118.8690  149.2379  145.3095 C   0  0  0  0  0  0  0  0  0  0  0  0
  118.0158  148.6161  144.4584 C   0  0  0  0  0  0  0  0  0  0  0  0
  118.2680  148.3381  143.1855 C   0  0  0  0  0  0  0  0  0  0  0  0
  119.5406  148.6745  142.5897 N   0  0  0  0  0  0  0  0  0  0  0  0
  119.4835  148.2352  141.3800 C   0  0  0  0  0  0  0  0  0  0  0  0
  120.5444  148.3644  140.4438 N   0  0  0  0  0  0  0  0  0  0  0  0
  120.4944  147.8049  139.1449 C   0  0  0  0  0  0  0  0  0  0  0  0
  121.6090  147.7204  138.3521 C   0  0  0  0  0  0  0  0  0  0  0  0
  121.5381  147.1586  137.0707 C   0  0  0  0  0  0  0  0  0  0  0  0
  120.3391  146.6818  136.5903 C   0  0  0  0  0  0  0  0  0  0  0  0
  120.1989  145.9463  134.9380 S   0  0  0  0  0  1  0  0  0  0  0  0
  119.2084  146.7607  137.3781 C   0  0  0  0  0  0  0  0  0  0  0  0
  117.6888  146.1556  136.7669 Cl  0  0  0  0  0  0  0  0  0  0  0  0
  119.3097  147.3201  138.6378 C   0  0  0  0  0  0  0  0  0  0  0  0
  118.2212  147.6163  141.1400 N   0  0  0  0  0  0  0  0  0  0  0  0
  117.4853  147.6671  142.1990 C   0  0  0  0  0  0  0  0  0  0  0  0
  116.1670  147.1756  142.4061 N   0  0  0  0  0  0  0  0  0  0  0  0
  115.5079  146.5339  141.2810 C   0  0  0  0  0  0  0  0  0  0  0  0
  114.1929  147.1749  140.9459 C   0  0  0  0  0  0  0  0  0  0  0  0
  114.1067  147.2529  139.5573 O   0  0  0  0  0  0  0  0  0  0  0  0
  1  2  1  0
  2  3  2  0
  3  4  2  0
  4  5  1  0
  5  6  2  3
  6  7  1  0
  7  8  2  0
  8  9  1  0
  9 10  1  0
 10 11  2  0
 11 12  1  0
 12 13  2  0
 13 14  1  0
 13 15  1  0
 15 16  1  0
 15 17  2  0
  8 18  1  0
 18 19  2  0
 19 20  1  0
 20 21  1  0
 21 22  1  0
 22 23  1  0
 19  6  1  0
 17 10  1  0
M  CHG  1  14   1
M  RAD  1  14   3
M  END
$$$$
