
     RDKit          3D

 20 21  0  0  0  0  0  0  0  0999 V2000
  166.3244  137.8258  161.2734 O   0  0  0  0  0  1  0  0  0  0  0  0
  167.6282  137.7621  161.7301 C   0  0  0  0  0  0  0  0  0  0  0  0
  168.4318  136.2289  161.9457 Cl  0  0  0  0  0  0  0  0  0  0  0  0
  168.2680  138.8695  162.0043 C   0  0  0  0  0  0  0  0  0  0  0  0
  169.6116  138.8410  162.5736 C   0  0  0  0  0  0  0  0  0  0  0  0
  170.1439  140.1405  162.8740 N   0  0  0  0  0  0  0  0  0  0  0  0
  170.3836  141.0482  161.8197 C   0  0  0  0  0  0  0  0  0  0  0  0
  170.9821  142.2428  162.0106 N   0  0  0  0  0  0  0  0  0  0  0  0
  171.2090  143.1105  160.9898 C   0  0  0  0  0  0  0  0  0  0  0  0
  171.8486  144.3394  161.3193 N   0  0  0  0  0  0  0  0  0  0  0  0
  172.5140  145.0697  160.2628 C   0  0  0  0  0  0  0  0  0  0  0  0
  173.1480  146.2991  160.8594 C   0  0  0  0  0  0  0  0  0  0  0  0
  173.7445  147.0715  159.8628 O   0  0  0  0  0  0  0  0  0  0  0  0
  170.8205  142.7697  159.7207 C   0  0  0  0  0  0  0  0  0  0  0  0
  171.0378  143.6230  158.6845 C   0  0  0  0  0  0  0  0  0  0  0  0
  170.6428  143.2796  157.3857 C   0  0  0  0  0  0  0  0  0  0  0  0
  170.0287  142.0699  157.1476 C   0  0  0  0  0  0  0  0  0  0  0  0
  169.8240  141.2324  158.2129 C   0  0  0  0  0  0  0  0  0  0  0  0
  170.2016  141.5432  159.5002 C   0  0  0  0  0  0  0  0  0  0  0  0
  170.0202  140.7606  160.5506 N   0  0  0  0  0  0  0  0  0  0  0  0
  1  2  1  0
  2  3  1  0
  2  4  2  3
  4  5  1  0
  5  6  1  0
  6  7  1  0
  7  8  2  0
  8  9  1  0
  9 10  1  0
 10 11  1  0
 11 12  1  0
 12 13  1  0
  9 14  2  0
 14 15  1  0
 15 16  2  0
 16 17  1  0
 17 18  2  0
 18 19  1  0
 19 20  2  0
 20  7  1  0
 19 14  1  0
M  CHG  1   1  -1
M  END
$$$$
