
     RDKit          3D

 21 22  0  0  0  0  0  0  0  0999 V2000
  125.2992  145.1735  149.1797 C   0  0  0  0  0  0  0  0  0  0  0  0
  126.4425  144.5632  148.4409 C   0  0  0  0  0  0  0  0  0  0  0  0
  126.2399  143.8559  147.4557 N   0  0  0  0  0  0  0  0  0  0  0  0
  126.9556  143.1146  146.5030 C   0  0  0  0  0  0  0  0  0  0  0  0
  126.9882  143.6321  145.1941 C   0  0  0  0  0  0  0  0  0  0  0  0
  127.6618  143.0375  144.1468 C   0  0  0  0  0  0  0  0  0  0  0  0
  128.3478  141.8795  144.3474 C   0  0  0  0  0  0  0  0  0  0  0  0
  128.3193  141.3641  145.6284 C   0  0  0  0  0  0  0  0  0  0  0  0
  127.6525  141.9354  146.7014 C   0  0  0  0  0  0  0  0  0  0  0  0
  127.7000  141.1915  148.0041 C   0  0  0  0  0  0  0  0  0  0  0  0
  128.2663  139.8327  147.9344 N   0  0  0  0  0  0  0  0  0  0  0  0
  127.9518  138.8020  148.9028 C   0  0  0  0  0  0  0  0  0  0  0  0
  126.8836  137.8616  148.4022 C   0  0  0  0  0  0  0  0  0  0  0  0
  125.7071  138.0631  149.1254 O   0  0  0  0  0  0  0  0  0  0  0  0
  127.3041  141.5838  149.0688 N   0  0  0  0  0  0  0  0  0  0  0  0
  126.7860  142.2577  150.1313 C   0  0  0  0  0  0  0  0  0  0  0  0
  127.6765  143.2502  150.8014 C   0  0  0  0  0  0  0  0  0  0  0  0
  128.1115  144.3837  150.2715 C   0  0  0  0  0  0  0  0  0  0  0  0
  129.1778  145.4424  151.2432 Cl  0  0  0  0  0  0  0  0  0  0  0  0
  127.8024  144.8879  148.9155 C   0  0  0  0  0  0  0  0  0  0  0  0
  129.0827  144.3442  147.8076 Cl  0  0  0  0  0  0  0  0  0  0  0  0
  1  2  1  0
  2  3  2  0
  3  4  1  0
  4  5  2  0
  5  6  1  0
  6  7  2  0
  7  8  1  0
  8  9  2  0
  9 10  1  0
 10 11  1  0
 11 12  1  0
 12 13  1  0
 13 14  1  0
 10 15  2  0
 15 16  1  0
 16 17  1  0
 17 18  2  0
 18 19  1  0
 18 20  1  0
 20 21  1  0
 20  2  1  0
  9  4  1  0
M  END
$$$$
