
     RDKit          3D

 17 19  0  0  0  0  0  0  0  0999 V2000
  150.7840  144.4937  142.7921 C   0  0  0  0  0  0  0  0  0  0  0  0
  151.0491  144.9544  144.1899 C   0  0  0  0  0  0  0  0  0  0  0  0
  150.7573  144.4112  145.3453 O   0  0  0  0  0  0  0  0  0  0  0  0
  151.1805  145.1633  146.3329 C   0  0  0  0  0  0  0  0  0  0  0  0
  151.7976  146.2862  145.8105 C   0  0  0  0  0  0  0  0  0  0  0  0
  151.7072  146.1411  144.4395 C   0  0  0  0  0  0  0  0  0  0  0  0
  152.3006  147.2249  143.6394 C   0  0  0  0  0  0  0  0  0  0  0  0
  152.2344  147.1220  142.3825 O   0  0  0  0  0  0  0  0  0  0  0  0
  152.9441  148.3804  144.2507 C   0  0  0  0  0  0  0  0  0  0  0  0
  153.4956  149.3875  143.5092 C   0  0  0  0  0  0  0  0  0  0  0  0
  153.4057  149.2435  142.1278 O   0  0  0  0  0  0  0  0  0  0  0  0
  154.0938  150.4615  144.0934 C   0  0  0  0  0  0  0  0  0  0  0  0
  154.1763  150.5924  145.4533 C   0  0  0  0  0  0  0  0  0  0  0  0
  153.6276  149.5902  146.1969 C   0  0  0  0  0  0  0  0  0  0  0  0
  153.0218  148.5023  145.6278 C   0  0  0  0  0  0  0  0  0  0  0  0
  152.4305  147.4222  146.4347 C   0  0  0  0  0  0  0  0  0  0  0  0
  152.4674  147.4723  147.6861 O   0  0  0  0  0  0  0  0  0  0  0  0
  1  2  1  0
  2  3  1  0
  3  4  1  0
  4  5  2  0
  5  6  1  0
  6  7  1  0
  7  8  2  0
  7  9  1  0
  9 10  2  0
 10 11  1  0
 10 12  1  0
 12 13  2  0
 13 14  1  0
 14 15  2  0
 15 16  1  0
 16 17  2  0
  6  2  2  0
 15  9  1  0
 16  5  1  0
M  END
$$$$
