
     RDKit          3D

 18 19  0  0  0  0  0  0  0  0999 V2000
  128.3067  140.3943  144.4258 C   0  0  0  0  0  0  0  0  0  0  0  0
  127.5493  140.7836  145.6636 C   0  0  0  0  0  0  0  0  0  0  0  0
  127.7252  141.9579  146.2281 C   0  0  0  0  0  0  0  0  0  0  0  0
  127.0892  142.3591  147.4058 N   0  0  0  0  0  0  0  0  0  0  0  0
  126.9582  143.5615  147.8172 C   0  0  0  0  0  0  0  0  0  0  0  0
  128.1964  144.2233  148.2800 C   0  0  0  0  0  0  0  0  0  0  0  0
  127.9631  145.5470  148.9245 C   0  0  0  0  0  0  0  0  0  0  0  0
  129.5302  146.3568  149.1169 Cl  0  0  0  0  0  0  0  0  0  0  0  0
  127.1749  145.4967  150.1888 C   0  0  0  0  0  0  0  0  0  0  0  0
  127.1382  144.1535  150.8950 C   0  0  0  0  0  0  0  0  0  0  0  0
  127.0666  144.8854  152.1037 O   0  0  0  0  0  0  0  0  0  0  0  0
  127.8681  145.8505  151.4550 C   0  0  0  0  0  0  0  0  0  0  0  0
  129.5558  145.3102  151.4926 Cl  0  0  0  0  0  0  0  0  0  0  0  0
  125.8069  146.0147  150.0315 C   0  0  0  0  0  0  0  0  0  0  0  0
  125.3143  146.8421  151.1710 C   0  0  0  0  0  0  0  0  0  0  0  0
  124.9111  145.8875  149.0596 C   0  0  0  0  0  0  0  0  0  0  0  0
  124.8476  145.2107  147.7462 C   0  0  0  0  0  0  0  0  0  0  0  0
  125.6023  143.9760  147.7233 N   0  0  0  0  0  0  0  0  0  0  0  0
  1  2  1  0
  2  3  2  3
  3  4  1  0
  4  5  2  3
  5  6  1  0
  6  7  1  0
  7  8  1  0
  7  9  1  0
  9 10  1  0
 10 11  1  0
 11 12  1  0
 12 13  1  0
  9 14  1  0
 14 15  1  0
 14 16  2  0
 16 17  1  0
 17 18  1  0
 18  5  1  0
 12  9  1  0
M  END
$$$$
