
     RDKit          3D

 24 25  0  0  0  0  0  0  0  0999 V2000
   44.1687   44.6301   25.5113 C   0  0  0  0  0  0  0  0  0  0  0  0
   43.3598   44.0989   24.6232 C   0  0  0  0  0  0  0  0  0  0  0  0
   43.0475   42.3618   24.7860 Cl  0  0  0  0  0  0  0  0  0  0  0  0
   42.6642   44.8970   23.6256 C   0  0  0  0  0  0  0  0  0  0  0  0
   43.2951   45.5378   22.6494 C   0  0  0  0  0  0  0  0  0  0  0  0
   42.6628   46.3687   21.6407 C   0  0  0  0  0  0  0  0  0  0  0  0
   43.6489   46.6679   20.5813 N   0  0  0  0  0  0  0  0  0  0  0  0
   42.4196   47.7647   22.2545 C   0  0  0  0  0  0  0  0  0  0  0  0
   41.3505   48.3419   22.1313 N   0  0  0  0  0  0  0  0  0  0  0  0
   40.0979   48.2323   21.5947 C   0  0  0  0  0  0  0  0  0  0  0  0
   39.9012   49.4777   20.7132 C   0  0  0  0  0  0  0  0  0  0  0  0
   38.7269   49.6386   20.3131 N   0  0  0  0  0  0  0  0  0  0  0  0
   37.6557   49.1059   20.8814 O   0  0  0  0  0  0  0  0  0  0  0  0
   37.7305   48.2306   22.0905 C   0  0  0  0  0  0  0  0  0  0  0  0
   38.9487   48.1032   22.4180 N   0  0  0  0  0  0  0  0  0  0  0  0
   36.5366   47.7717   22.5439 N   0  0  0  0  0  0  0  0  0  0  0  0
   35.9925   46.3872   22.4979 C   0  0  0  0  0  0  0  0  0  0  0  0
   36.9922   45.4760   21.9167 C   0  0  0  0  0  0  0  0  0  0  0  0
   36.6241   44.1486   21.6706 O   0  0  0  0  0  0  0  0  0  0  0  0
   37.4804   43.6484   20.6957 C   0  0  0  0  0  0  0  0  0  0  0  0
   38.9441   44.0041   21.4795 C   0  0  0  0  0  0  0  0  0  0  0  0
   39.6339   44.1695   21.8332 C   0  0  0  0  0  0  0  0  0  0  0  0
   40.6974   44.4099   22.3935 N   0  0  0  0  0  0  0  0  0  0  0  0
   41.1527   44.7338   23.6037 C   0  0  0  0  0  0  0  0  0  0  0  0
  1  2  2  0
  2  3  1  0
  2  4  1  0
  4  5  2  0
  5  6  1  0
  6  7  1  0
  6  8  1  0
  8  9  2  0
  9 10  1  0
 10 11  1  0
 11 12  2  0
 12 13  1  0
 13 14  1  0
 14 15  2  0
 14 16  1  0
 16 17  1  0
 17 18  1  0
 18 19  1  0
 19 20  1  0
 20 21  1  0
 21 22  3  0
 22 23  1  0
 23 24  2  0
 24  4  1  0
 15 10  1  0
M  END
$$$$
