
     RDKit          3D

 24 25  0  0  0  0  0  0  0  0999 V2000
   10.2390    7.8726    3.2037 C   0  0  0  0  0  0  0  0  0  0  0  0
   11.2126    8.1528    4.0396 C   0  0  0  0  0  0  0  0  0  0  0  0
   11.1075    9.7142    4.8718 Cl  0  0  0  0  0  0  0  0  0  0  0  0
   12.2644    7.2003    4.3596 C   0  0  0  0  0  0  0  0  0  0  0  0
   13.2473    7.4725    5.2091 C   0  0  0  0  0  0  0  0  0  0  0  0
   14.3378    6.5771    5.5507 C   0  0  0  0  0  0  0  0  0  0  0  0
   15.0538    7.1216    6.7233 N   0  0  0  0  0  0  0  0  0  0  0  0
   15.4093    6.6841    4.4438 C   0  0  0  0  0  0  0  0  0  0  0  0
   15.9228    5.6921    3.9505 N   0  0  0  0  0  0  0  0  0  0  0  0
   15.9290    4.3255    3.9849 C   0  0  0  0  0  0  0  0  0  0  0  0
   17.3897    3.9118    4.2338 C   0  0  0  0  0  0  0  0  0  0  0  0
   17.6054    2.6885    4.0852 N   0  0  0  0  0  0  0  0  0  0  0  0
   16.8390    1.8660    3.3850 O   0  0  0  0  0  0  0  0  0  0  0  0
   15.6006    2.3158    2.6795 C   0  0  0  0  0  0  0  0  0  0  0  0
   15.4445    3.5554    2.8952 N   0  0  0  0  0  0  0  0  0  0  0  0
   14.9356    1.3428    2.0068 N   0  0  0  0  0  0  0  0  0  0  0  0
   13.6242    0.7172    2.3288 C   0  0  0  0  0  0  0  0  0  0  0  0
   13.0424    1.3595    3.5190 C   0  0  0  0  0  0  0  0  0  0  0  0
   11.8661    0.8273    4.0585 O   0  0  0  0  0  0  0  0  0  0  0  0
   11.7976    1.2224    5.3901 C   0  0  0  0  0  0  0  0  0  0  0  0
   11.9477    2.8945    5.1353 C   0  0  0  0  0  0  0  0  0  0  0  0
   12.0219    3.6766    5.0296 C   0  0  0  0  0  0  0  0  0  0  0  0
   12.1173    4.8867    4.8589 N   0  0  0  0  0  0  0  0  0  0  0  0
   12.0226    5.7799    3.8739 C   0  0  0  0  0  0  0  0  0  0  0  0
  1  2  2  0
  2  3  1  0
  2  4  1  0
  4  5  2  0
  5  6  1  0
  6  7  1  0
  6  8  1  0
  8  9  2  0
  9 10  1  0
 10 11  1  0
 11 12  2  0
 12 13  1  0
 13 14  1  0
 14 15  2  0
 14 16  1  0
 16 17  1  0
 17 18  1  0
 18 19  1  0
 19 20  1  0
 20 21  1  0
 21 22  3  0
 22 23  1  0
 23 24  2  0
 24  4  1  0
 15 10  1  0
M  END
$$$$
