
     RDKit          3D

 24 25  0  0  0  0  0  0  0  0999 V2000
   46.2325   39.0074   27.9725 C   0  0  0  0  0  0  0  0  0  0  0  0
   45.3281   39.4443   28.8188 C   0  0  0  0  0  0  0  0  0  0  0  0
   45.6092   39.0733   30.5290 Cl  0  0  0  0  0  0  0  0  0  0  0  0
   44.2130   40.2820   28.4053 C   0  0  0  0  0  0  0  0  0  0  0  0
   44.1897   41.5951   28.5975 C   0  0  0  0  0  0  0  0  0  0  0  0
   43.0991   42.4809   28.2320 C   0  0  0  0  0  0  0  0  0  0  0  0
   43.5616   43.8800   28.3444 N   0  0  0  0  0  0  0  0  0  0  0  0
   42.0299   42.4073   29.3438 C   0  0  0  0  0  0  0  0  0  0  0  0
   40.8430   42.2838   29.0848 N   0  0  0  0  0  0  0  0  0  0  0  0
   39.9493   42.1619   28.0575 C   0  0  0  0  0  0  0  0  0  0  0  0
   38.9148   43.2830   28.2570 C   0  0  0  0  0  0  0  0  0  0  0  0
   37.9083   43.1848   27.5206 N   0  0  0  0  0  0  0  0  0  0  0  0
   37.5050   42.0657   26.9381 O   0  0  0  0  0  0  0  0  0  0  0  0
   38.2244   40.7652   27.0960 C   0  0  0  0  0  0  0  0  0  0  0  0
   39.2364   40.9545   27.8359 N   0  0  0  0  0  0  0  0  0  0  0  0
   37.6732   39.7179   26.4319 N   0  0  0  0  0  0  0  0  0  0  0  0
   38.1876   38.9993   25.2345 C   0  0  0  0  0  0  0  0  0  0  0  0
   39.4983   39.5469   24.8474 C   0  0  0  0  0  0  0  0  0  0  0  0
   40.0921   39.0886   23.6662 O   0  0  0  0  0  0  0  0  0  0  0  0
   40.9962   40.0581   23.2461 C   0  0  0  0  0  0  0  0  0  0  0  0
   41.8994   40.1584   24.6805 C   0  0  0  0  0  0  0  0  0  0  0  0
   42.3256   40.2177   25.3462 C   0  0  0  0  0  0  0  0  0  0  0  0
   42.9933   40.2913   26.3715 N   0  0  0  0  0  0  0  0  0  0  0  0
   43.1970   39.6073   27.4974 C   0  0  0  0  0  0  0  0  0  0  0  0
  1  2  2  0
  2  3  1  0
  2  4  1  0
  4  5  2  0
  5  6  1  0
  6  7  1  0
  6  8  1  0
  8  9  2  0
  9 10  1  0
 10 11  1  0
 11 12  2  0
 12 13  1  0
 13 14  1  0
 14 15  2  0
 14 16  1  0
 16 17  1  0
 17 18  1  0
 18 19  1  0
 19 20  1  0
 20 21  1  0
 21 22  3  0
 22 23  1  0
 23 24  2  0
 24  4  1  0
 15 10  1  0
M  END
$$$$
