
     RDKit          3D

 27 29  0  0  0  0  0  0  0  0999 V2000
   16.2191   52.3626   20.4327 C   0  0  0  0  0  0  0  0  0  0  0  0
   17.0327   51.1248   20.0482 C   0  0  0  0  0  0  0  0  0  0  0  0
   16.0824   49.9569   19.8532 C   0  0  0  0  0  0  0  0  0  0  0  0
   15.0911   49.9270   20.8350 O   0  0  0  0  0  0  0  0  0  0  0  0
   14.8578   48.8244   21.6435 C   0  0  0  0  0  0  0  0  0  0  0  0
   13.5567   48.3442   21.8208 C   0  0  0  0  0  0  0  0  0  0  0  0
   13.3180   47.2484   22.6234 C   0  0  0  0  0  0  0  0  0  0  0  0
   14.3338   46.5895   23.2749 C   0  0  0  0  0  0  0  0  0  0  0  0
   13.9985   45.4398   24.1046 C   0  0  0  0  0  0  0  0  0  0  0  0
   12.8417   44.9032   24.0424 O   0  0  0  0  0  0  0  0  0  0  0  0
   14.8902   44.8282   25.0267 N   0  0  0  0  0  0  0  0  0  0  0  0
   14.5276   43.6518   25.7608 C   0  0  0  0  0  0  0  0  0  0  0  0
   13.6256   42.6978   25.4706 N   0  0  0  0  0  0  0  0  0  0  0  0
   13.5969   41.7927   26.4000 O   0  0  0  0  0  0  0  0  0  0  0  0
   14.4570   42.1189   27.3030 N   0  0  0  0  0  0  0  0  0  0  0  0
   15.0777   43.2747   26.9670 C   0  0  0  0  0  0  0  0  0  0  0  0
   16.1118   43.9996   27.6956 C   0  0  0  0  0  0  0  0  0  0  0  0
   16.0814   45.3479   27.9126 C   0  0  0  0  0  0  0  0  0  0  0  0
   17.0814   46.0032   28.6092 C   0  0  0  0  0  0  0  0  0  0  0  0
   18.1495   45.2849   29.1064 C   0  0  0  0  0  0  0  0  0  0  0  0
   19.1859   45.8705   29.8121 O   0  0  0  0  0  0  0  0  0  0  0  0
   19.2379   47.2535   30.1009 C   0  0  0  0  0  0  0  0  0  0  0  0
   18.2106   43.9207   28.9046 C   0  0  0  0  0  0  0  0  0  0  0  0
   19.3586   43.1440   29.4382 C   0  0  0  0  0  0  0  0  0  0  0  0
   17.1848   43.2932   28.1977 C   0  0  0  0  0  0  0  0  0  0  0  0
   15.6074   47.0698   23.0936 C   0  0  0  0  0  0  0  0  0  0  0  0
   15.8804   48.1705   22.2923 C   0  0  0  0  0  0  0  0  0  0  0  0
  1  2  1  0
  2  3  1  0
  3  4  1  0
  4  5  1  0
  5  6  2  0
  6  7  1  0
  7  8  2  0
  8  9  1  0
  9 10  2  0
  9 11  1  0
 11 12  1  0
 12 13  2  0
 13 14  1  0
 14 15  1  0
 15 16  2  0
 16 17  1  0
 17 18  2  0
 18 19  1  0
 19 20  2  0
 20 21  1  0
 21 22  1  0
 20 23  1  0
 23 24  1  0
 23 25  2  0
  8 26  1  0
 26 27  2  0
 27  5  1  0
 16 12  1  0
 25 17  1  0
M  END
$$$$
