
     RDKit          3D

 27 28  0  0  0  0  0  0  0  0999 V2000
  158.0575  151.3361  145.7079 C   0  0  0  0  0  0  0  0  0  0  0  0
  156.7571  150.7580  146.2070 C   0  0  0  0  0  0  0  0  0  0  0  0
  155.7207  151.5540  146.3516 C   0  0  0  0  0  0  0  0  0  0  0  0
  154.4288  151.0633  146.8698 C   0  0  0  0  0  0  0  0  0  0  0  0
  153.4715  152.2186  147.0060 C   0  0  0  0  0  0  0  0  0  0  0  0
  153.4927  152.9512  148.1707 C   0  0  0  0  0  0  0  0  0  0  0  0
  152.6236  154.0119  148.3250 C   0  0  0  0  0  0  0  0  0  0  0  0
  152.6247  154.9636  149.7924 Cl  0  0  0  0  0  0  0  0  0  0  0  0
  151.7401  154.3347  147.3181 C   0  0  0  0  0  0  0  0  0  0  0  0
  150.6261  155.6950  147.5201 Cl  0  0  0  0  0  0  0  0  0  0  0  0
  151.7412  153.5844  146.1646 C   0  0  0  0  0  0  0  0  0  0  0  0
  152.5784  152.5400  145.9803 C   0  0  0  0  0  0  0  0  0  0  0  0
  152.6334  151.7256  144.8174 N   0  0  0  0  0  0  0  0  0  0  0  0
  152.0918  152.0772  143.5216 C   0  0  0  0  0  0  0  0  0  0  0  0
  153.0903  152.8570  142.7385 C   0  0  0  0  0  0  0  0  0  0  0  0
  153.1599  154.1622  142.8928 C   0  0  0  0  0  0  0  0  0  0  0  0
  153.4126  155.1832  142.8578 C   0  0  0  0  0  0  0  0  0  0  0  0
  153.5999  155.8982  142.8248 C   0  0  0  0  0  0  0  0  0  0  0  0
  153.8659  156.8582  142.7700 N   0  0  0  0  0  0  0  0  0  0  0  0
  154.9776  155.8650  141.7409 C   0  0  0  0  0  0  0  0  0  0  0  0
  154.6535  154.5168  141.7798 N   0  0  0  0  0  0  0  0  0  0  0  0
  151.5049  150.8872  142.9133 C   0  0  0  0  0  0  0  0  0  0  0  0
  152.3315  149.6547  142.7719 C   0  0  0  0  0  0  0  0  0  0  0  0
  151.6528  148.5361  142.1714 N   0  0  0  0  0  0  0  0  0  0  0  0
  152.5001  147.3615  142.0407 C   0  0  0  0  0  0  0  0  0  0  0  0
  151.5733  146.2276  141.6403 C   0  0  0  0  0  0  0  0  0  0  0  0
  152.2722  145.0315  141.4914 O   0  0  0  0  0  0  0  0  0  0  0  0
  1  2  1  0
  2  3  2  3
  3  4  1  0
  4  5  1  0
  5  6  2  0
  6  7  1  0
  7  8  1  0
  7  9  2  0
  9 10  1  0
  9 11  1  0
 11 12  2  0
 12 13  1  0
 13 14  1  0
 14 15  1  0
 15 16  2  3
 16 17  1  0
 17 18  3  0
 18 19  1  0
 19 20  2  0
 20 21  1  0
 14 22  1  0
 22 23  1  0
 23 24  1  0
 24 25  1  0
 25 26  1  0
 26 27  1  0
 12  5  1  0
 21 16  1  0
M  END
$$$$
