
     RDKit          3D

 19 21  0  0  0  0  0  0  0  0999 V2000
   44.3747   40.5955   21.5808 C   0  0  0  0  0  0  0  0  0  0  0  0
   44.3603   39.5296   22.5411 O   0  0  0  0  0  0  0  0  0  0  0  0
   44.0885   39.8362   23.8662 C   0  0  0  0  0  0  0  0  0  0  0  0
   43.9956   41.1571   24.2475 C   0  0  0  0  0  0  0  0  0  0  0  0
   43.7261   41.4940   25.5590 C   0  0  0  0  0  0  0  0  0  0  0  0
   43.5534   40.4887   26.4714 C   0  0  0  0  0  0  0  0  0  0  0  0
   43.2826   40.7939   27.7917 C   0  0  0  0  0  0  0  0  0  0  0  0
   43.1748   42.0813   28.2486 O   0  0  0  0  0  0  0  0  0  0  0  0
   42.4336   43.0201   27.4749 C   0  0  0  0  0  0  0  0  0  0  0  0
   43.1064   39.7883   28.7217 C   0  0  0  0  0  0  0  0  0  0  0  0
   42.8335   39.7550   30.0719 C   0  0  0  0  0  0  0  0  0  0  0  0
   42.7877   38.4117   30.3776 C   0  0  0  0  0  0  0  0  0  0  0  0
   43.0126   37.7146   29.3075 O   0  0  0  0  0  0  0  0  0  0  0  0
   43.2156   38.4835   28.2590 C   0  0  0  0  0  0  0  0  0  0  0  0
   43.4807   38.1921   26.9663 N   0  0  0  0  0  0  0  0  0  0  0  0
   43.6538   39.1782   26.0527 C   0  0  0  0  0  0  0  0  0  0  0  0
   43.9226   38.7867   24.7476 C   0  0  0  0  0  0  0  0  0  0  0  0
   44.0229   37.4902   24.3283 O   0  0  0  0  0  0  0  0  0  0  0  0
   43.9427   36.3292   25.0884 C   0  0  0  0  0  0  0  0  0  0  0  0
  1  2  1  0
  2  3  1  0
  3  4  2  0
  4  5  1  0
  5  6  2  0
  6  7  1  0
  7  8  1  0
  8  9  1  0
  7 10  2  0
 10 11  1  0
 11 12  2  0
 12 13  1  0
 13 14  1  0
 14 15  2  0
 15 16  1  0
 16 17  2  0
 17 18  1  0
 18 19  1  0
 17  3  1  0
 16  6  1  0
 14 10  1  0
M  END
$$$$
