
     RDKit          3D

 23 23  0  0  0  0  0  0  0  0999 V2000
  166.1444  140.6934  156.4317 C   0  0  0  0  0  0  0  0  0  0  0  0
  167.4203  140.1206  156.9962 C   0  0  0  0  0  0  0  0  0  0  0  0
  167.6353  140.6683  158.3110 N   0  0  0  0  0  0  0  0  0  0  0  0
  168.7758  141.4569  158.6249 C   0  0  0  0  0  0  0  0  0  0  0  0
  169.0166  141.9054  159.8708 N   0  0  0  0  0  0  0  0  0  0  0  0
  170.0810  142.6517  160.2069 C   0  0  0  0  0  0  0  0  0  0  0  0
  170.3143  143.1182  161.5481 N   0  0  0  0  0  0  0  0  0  0  0  0
  171.4125  144.0031  161.8365 C   0  0  0  0  0  0  0  0  0  0  0  0
  171.0976  145.4187  161.4497 C   0  0  0  0  0  0  0  0  0  0  0  0
  172.0951  146.5141  162.4112 S   0  0  0  0  0  6  0  0  0  0  0  0
  173.5195  146.1705  162.2805 O   0  0  0  0  0  0  0  0  0  0  0  0
  171.7094  146.3295  163.8623 O   0  0  0  0  0  0  0  0  0  0  0  0
  171.8328  148.2004  161.9057 C   0  0  0  0  0  0  0  0  0  0  0  0
  170.3492  148.4967  161.9688 C   0  0  0  0  0  0  0  0  0  0  0  0
  172.3036  148.3303  160.4846 C   0  0  0  0  0  0  0  0  0  0  0  0
  170.9460  142.9550  159.2108 N   0  0  0  0  0  0  0  0  0  0  0  0
  170.7644  142.5396  157.9474 C   0  0  0  0  0  0  0  0  0  0  0  0
  171.6941  142.8696  156.8938 N   0  0  0  0  0  0  0  0  0  0  0  0
  172.8997  143.5895  157.1319 C   0  0  0  0  0  0  0  0  0  0  0  0
  173.6118  143.8024  155.8163 C   0  0  0  0  0  0  0  0  0  0  0  0
  172.6616  144.9186  157.8123 C   0  0  0  0  0  0  0  0  0  0  0  0
  173.7881  142.7434  158.0284 C   0  0  0  0  0  0  0  0  0  0  0  0
  169.6843  141.7957  157.6635 N   0  0  0  0  0  0  0  0  0  0  0  0
  1  2  1  0
  2  3  1  0
  3  4  1  0
  4  5  2  0
  5  6  1  0
  6  7  1  0
  7  8  1  0
  8  9  1  0
  9 10  1  0
 10 11  2  0
 10 12  2  0
 10 13  1  0
 13 14  1  0
 13 15  1  0
  6 16  2  0
 16 17  1  0
 17 18  1  0
 18 19  1  0
 19 20  1  0
 19 21  1  0
 19 22  1  0
 17 23  2  0
 23  4  1  0
M  END
$$$$
