
     RDKit          3D

 31 34  0  0  0  0  0  0  0  0999 V2000
   13.9657   50.4172   22.7222 C   0  0  0  0  0  0  0  0  0  0  0  0
   14.3588   49.7756   24.0344 C   0  0  0  0  0  0  0  0  0  0  0  0
   15.7666   50.2609   24.3318 C   0  0  0  0  0  0  0  0  0  0  0  0
   14.2990   48.2753   23.9139 C   0  0  0  0  0  0  0  0  0  0  0  0
   13.3821   47.7724   22.8806 C   0  0  0  0  0  0  0  0  0  0  0  0
   13.0313   46.3526   22.7835 C   0  0  0  0  0  0  0  0  0  0  0  0
   13.2111   45.4740   23.9901 C   0  0  2  0  0  0  0  0  0  0  0  0
   14.4038   45.8566   24.7642 C   0  0  0  0  0  0  0  0  0  0  0  0
   13.1955   44.0583   23.4962 C   0  0  1  0  0  0  0  0  0  0  0  0
   14.4371   43.6790   22.7140 C   0  0  0  0  0  0  0  0  0  0  0  0
   14.9281   42.4467   23.5123 C   0  0  0  0  0  0  0  0  0  0  0  0
   13.6266   41.8092   23.7992 C   0  0  1  0  0  0  0  0  0  0  0  0
   13.5733   40.6735   24.7303 C   0  0  2  0  0  0  0  0  0  0  0  0
   14.4679   39.5721   24.1506 C   0  0  0  0  0  0  0  0  0  0  0  0
   14.0976   38.2285   24.6577 C   0  0  0  0  0  0  0  0  0  0  0  0
   13.0240   37.9522   25.3496 C   0  0  0  0  0  0  0  0  0  0  0  0
   12.7267   36.5491   25.8264 C   0  0  0  0  0  0  0  0  0  0  0  0
   11.4635   36.0472   25.1869 C   0  0  2  0  0  0  0  0  0  0  0  0
   11.7610   35.2800   24.0673 O   0  0  0  0  0  0  0  0  0  0  0  0
   10.7805   34.3248   23.8097 C   0  0  0  0  0  0  0  0  0  0  0  0
   11.0954   33.1313   24.7175 C   0  0  0  0  0  0  0  0  0  0  0  0
   12.1621   32.3921   24.1910 O   0  0  0  0  0  0  0  0  0  0  0  0
   10.6246   37.2244   24.7060 C   0  0  0  0  0  0  0  0  0  0  0  0
   10.6866   38.3744   25.6868 C   0  0  0  0  0  0  0  0  0  0  0  0
   12.0551   39.0302   25.6902 C   0  0  1  0  0  0  0  0  0  0  0  0
   12.3711   39.4485   27.1094 C   0  0  0  0  0  0  0  0  0  0  0  0
   12.1664   40.1262   24.6857 C   0  0  1  0  0  0  0  0  0  0  0  0
   11.1082   41.1632   24.7902 C   0  0  0  0  0  0  0  0  0  0  0  0
   11.3796   42.4833   24.1854 C   0  0  0  0  0  0  0  0  0  0  0  0
   12.8159   42.9748   24.3989 C   0  0  2  0  0  0  0  0  0  0  0  0
   13.0157   43.1233   25.8542 C   0  0  0  0  0  0  0  0  0  0  0  0
  1  2  1  0
  2  3  1  0
  2  4  1  0
  4  5  1  0
  5  6  1  0
  6  7  1  0
  7  8  1  6
  7  9  1  0
  9 10  1  1
 10 11  1  0
 12 11  1  1
 12 13  1  0
 13 14  1  6
 14 15  1  0
 15 16  2  0
 16 17  1  0
 17 18  1  0
 18 19  1  6
 19 20  1  0
 20 21  1  0
 21 22  1  0
 18 23  1  0
 23 24  1  0
 24 25  1  0
 25 26  1  1
 25 27  1  0
 27 28  1  1
 28 29  1  0
 29 30  1  0
 30 31  1  1
 30  9  1  0
 30 12  1  0
 27 13  1  0
 25 16  1  0
M  END
$$$$
