
     RDKit          3D

 18 20  0  0  0  0  0  0  0  0999 V2000
  165.3979  144.8439  155.2246 Cl  0  0  0  0  0  0  0  0  0  0  0  0
  166.7056  144.9822  156.4314 C   0  0  0  0  0  0  0  0  0  0  0  0
  166.9781  143.9579  157.1999 C   0  0  0  0  0  0  0  0  0  0  0  0
  165.6270  143.0019  157.7259 Cl  0  0  0  0  0  0  0  0  0  0  0  0
  168.3716  143.5483  157.5780 C   0  0  0  0  0  0  0  0  0  0  0  0
  168.7822  144.4523  158.5308 C   0  0  0  0  0  0  0  0  0  0  0  0
  169.5285  144.4316  159.7610 N   0  0  0  0  0  0  0  0  0  0  0  0
  170.7606  143.4571  159.8853 O   0  0  0  0  0  0  0  0  0  0  0  0
  170.5032  142.5271  158.7655 C   0  0  0  0  0  0  0  0  0  0  0  0
  170.0379  141.3921  158.7794 N   0  0  0  0  0  0  0  0  0  0  0  0
  169.0250  141.1440  157.7953 C   0  0  0  0  0  0  0  0  0  0  0  0
  168.3526  140.0690  157.6445 C   0  0  0  0  0  0  0  0  0  0  0  0
  167.3345  139.9837  156.5510 C   0  0  0  0  0  0  0  0  0  0  0  0
  167.6260  140.7611  155.5271 C   0  0  0  0  0  0  0  0  0  0  0  0
  168.0872  141.9702  155.7406 N   0  0  0  0  0  0  0  0  0  0  0  0
  168.8071  142.3393  156.8370 C   0  0  0  0  0  0  0  0  0  0  0  0
  170.4024  142.4477  156.5095 C   0  0  0  0  0  0  0  0  0  0  0  0
  170.7898  143.1846  157.4582 N   0  0  0  0  0  0  0  0  0  0  0  0
  1  2  1  0
  2  3  2  3
  3  4  1  0
  3  5  1  0
  5  6  2  0
  6  7  1  0
  7  8  1  0
  8  9  1  0
  9 10  2  0
 10 11  1  0
 11 12  2  0
 12 13  1  0
 13 14  2  0
 14 15  2  0
 15 16  1  0
 16 17  1  0
 17 18  2  0
 16  5  1  0
 18  9  1  0
 16 11  1  0
M  END
$$$$
