
     RDKit          3D

 39 38  0  0  0  0  0  0  0  0999 V2000
   37.1268   50.0392   20.4736 C   0  0  0  0  0  0  0  0  0  0  0  0
   38.2764   49.6997   19.9257 N   0  0  0  0  0  0  0  0  0  0  0  0
   38.4115   48.1624   20.1918 C   0  0  0  0  0  0  0  0  0  0  0  0
   39.2921   47.7153   19.3254 C   0  0  0  0  0  0  0  0  0  0  0  0
   40.1771   47.2747   18.4516 C   0  0  0  0  0  0  0  0  0  0  0  0
   40.3560   45.9375   18.1582 C   0  0  0  0  0  0  0  0  0  0  0  0
   41.3493   45.6373   17.1180 C   0  0  0  0  0  0  0  0  0  0  0  0
   42.4461   44.6889   17.5587 C   0  0  0  0  0  0  0  0  0  0  0  0
   41.8560   43.6284   18.2932 O   0  0  0  0  0  0  0  0  0  0  0  0
   42.6579   42.6774   18.9429 C   0  0  0  0  0  0  0  0  0  0  0  0
   42.4826   42.3752   20.1929 C   0  0  0  0  0  0  0  0  0  0  0  0
   42.7366   43.1479   21.3852 C   0  0  0  0  0  0  0  0  0  0  0  0
   42.3320   42.4969   22.6090 N   0  0  0  0  0  0  0  0  0  0  0  0
   42.5372   43.1935   23.8053 C   0  0  0  0  0  0  0  0  0  0  0  0
   41.4659   43.5249   24.6922 C   0  0  0  0  0  0  0  0  0  0  0  0
   40.2782   43.4962   24.9351 C   0  0  0  0  0  0  0  0  0  0  0  0
   39.1511   44.4896   24.7669 C   0  0  0  0  0  0  0  0  0  0  0  0
   38.2549   44.4479   25.6970 C   0  0  0  0  0  0  0  0  0  0  0  0
   38.0236   44.9456   26.9755 C   0  0  0  0  0  0  0  0  0  0  0  0
   37.1001   45.8970   27.1988 C   0  0  0  0  0  0  0  0  0  0  0  0
   35.9762   46.5884   27.3134 C   0  0  0  0  0  0  0  0  0  0  0  0
   34.7129   46.8703   26.8457 C   0  0  0  0  0  0  0  0  0  0  0  0
   34.5843   47.6472   25.7235 N   0  0  0  0  0  0  0  0  0  0  0  0
   33.7291   48.3371   25.1431 C   0  0  0  0  0  0  0  0  0  0  0  0
   33.7145   49.1813   23.9950 C   0  0  0  0  0  0  0  0  0  0  0  0
   32.5011   49.2942   23.3593 C   0  0  0  0  0  0  0  0  0  0  0  0
   32.4881   50.2131   22.2678 C   0  0  0  0  0  0  0  0  0  0  0  0
   32.4863   51.0264   21.3149 C   0  0  0  0  0  0  0  0  0  0  0  0
   32.4776   51.9406   20.2422 O   0  0  0  0  0  0  0  0  0  0  0  0
   31.9042   53.2015   20.6382 C   0  0  0  0  0  0  0  0  0  0  0  0
   32.2700   54.5284   19.5706 Cl  0  0  0  0  0  0  0  0  0  0  0  0
   31.1858   53.3140   21.6944 C   0  0  0  0  0  0  0  0  0  0  0  0
   30.5203   54.4679   22.3082 C   0  0  0  0  0  0  0  0  0  0  0  0
   43.7795   43.5769   24.1567 N   0  0  0  0  0  0  0  0  0  0  0  0
   44.1408   43.3660   25.4784 C   0  0  0  0  0  0  0  0  0  0  0  0
   45.2066   43.6569   26.1440 C   0  0  0  0  0  0  0  0  0  0  0  0
   45.2976   43.1912   27.5728 C   0  0  0  0  0  0  0  0  0  0  0  0
   46.4285   43.4737   28.2322 C   0  0  0  0  0  0  0  0  0  0  0  0
   46.4725   43.1001   29.6431 C   0  0  0  0  0  0  0  0  0  0  0  0
  1  2  2  0
  2  3  1  0
  3  4  2  3
  4  5  1  0
  5  6  2  3
  6  7  1  0
  7  8  1  0
  8  9  1  0
  9 10  1  0
 10 11  2  3
 11 12  1  0
 12 13  1  0
 13 14  1  0
 14 15  1  0
 15 16  2  3
 16 17  1  0
 17 18  2  3
 18 19  1  0
 19 20  2  0
 20 21  2  0
 21 22  2  0
 22 23  1  0
 23 24  2  3
 24 25  1  0
 25 26  2  3
 26 27  1  0
 27 28  3  0
 28 29  1  0
 29 30  1  0
 30 31  1  0
 30 32  2  3
 32 33  1  0
 14 34  2  3
 34 35  1  0
 35 36  2  3
 36 37  1  0
 37 38  2  3
 38 39  1  0
M  END
$$$$
