
     RDKit          3D

 21 22  0  0  0  0  0  0  0  0999 V2000
  156.8789  149.7866  179.8413 Cl  0  0  0  0  0  0  0  0  0  0  0  0
  156.5799  149.3826  178.2041 C   0  0  0  0  0  0  0  0  0  0  0  0
  155.2941  148.8962  177.8490 C   0  0  0  0  0  0  0  0  0  0  0  0
  155.1076  148.6804  176.4972 C   0  0  0  0  0  0  0  0  0  0  0  0
  155.9593  148.8407  175.4614 C   0  0  0  0  0  0  0  0  0  0  0  0
  155.6964  148.4437  174.0910 N   0  0  0  0  0  0  0  0  0  0  0  0
  156.0603  149.4498  173.0555 C   0  0  0  0  0  0  0  0  0  0  0  0
  157.3705  149.6090  173.0756 C   0  0  0  0  0  0  0  0  0  0  0  0
  158.0424  150.6199  172.1786 C   0  0  0  0  0  0  0  0  0  0  0  0
  159.2315  150.2294  171.4219 C   0  0  0  0  0  0  0  0  0  0  0  0
  159.2874  149.0567  170.5446 C   0  0  0  0  0  0  0  0  0  0  0  0
  159.2796  149.2342  169.2077 O   0  0  0  0  0  0  0  0  0  0  0  0
  159.2418  151.0551  169.1042 N   0  0  0  0  0  0  0  0  0  0  0  0
  158.2396  150.9610  169.2391 C   0  0  0  0  0  0  0  0  0  0  0  0
  156.8612  150.8192  169.4066 S   0  0  0  0  0  6  0  0  0  0  0  0
  154.6809  150.6040  169.7095 N   0  0  0  0  0  0  0  0  0  0  0  0
  154.7621  150.9152  171.2617 C   0  0  0  0  0  0  0  0  0  0  0  0
  154.8698  149.8173  172.2240 C   0  0  0  0  0  0  0  0  0  0  0  0
  157.2502  149.3498  175.8289 C   0  0  0  0  0  0  0  0  0  0  0  0
  157.5188  149.6007  177.1874 C   0  0  0  0  0  0  0  0  0  0  0  0
  159.1011  150.2950  177.6862 Cl  0  0  0  0  0  0  0  0  0  0  0  0
  1  2  1  0
  2  3  2  0
  3  4  1  0
  4  5  2  0
  5  6  1  0
  6  7  1  0
  7  8  2  0
  8  9  1  0
  9 10  1  0
 10 11  1  0
 11 12  1  0
 12 13  1  0
 13 14  1  0
 14 15  3  0
 15 16  2  0
 16 17  1  0
 17 18  1  0
  5 19  1  0
 19 20  2  0
 20 21  1  0
 20  2  1  0
 18  7  1  0
M  END
$$$$
