
     RDKit          3D

 24 25  0  0  0  0  0  0  0  0999 V2000
  128.5789  138.5319  138.6773 N   0  0  0  0  0  0  0  0  0  0  0  0
  127.8306  137.1811  139.5549 S   0  0  0  0  0  0  0  0  0  0  0  0
  128.0688  137.4913  141.2834 C   0  0  0  0  0  0  0  0  0  0  0  0
  128.2244  137.7225  142.4624 C   0  0  0  0  0  0  0  0  0  0  0  0
  128.4009  137.9722  143.8553 C   0  0  0  0  0  0  0  0  0  0  0  0
  127.9196  139.0885  144.4183 C   0  0  0  0  0  0  0  0  0  0  0  0
  128.0843  139.3418  145.8298 C   0  0  0  0  0  0  0  0  0  0  0  0
  127.6255  140.3397  146.4779 C   0  0  0  0  0  0  0  0  0  0  0  0
  127.8238  140.7389  147.9258 C   0  0  0  0  0  0  0  0  0  0  0  0
  127.1065  139.9968  148.6524 O   0  0  0  0  0  0  0  0  0  0  0  0
  126.4389  139.2867  149.3454 N   0  0  0  0  0  0  0  0  0  0  0  0
  125.5827  138.1728  148.9699 C   0  0  0  0  0  0  0  0  0  0  0  0
  124.6144  137.6071  149.6501 C   0  0  0  0  0  0  0  0  0  0  0  0
  124.0164  136.5238  148.8980 C   0  0  0  0  0  0  0  0  0  0  0  0
  124.6325  136.4335  147.7494 C   0  0  0  0  0  0  0  0  0  0  0  0
  125.6804  137.4672  147.6848 C   0  0  0  0  0  0  0  0  0  0  0  0
  127.5619  142.2123  148.1131 C   0  0  0  0  0  0  0  0  0  0  0  0
  126.8086  142.8964  147.1792 C   0  0  0  0  0  0  0  0  0  0  0  0
  126.5030  144.2483  147.3457 C   0  0  0  0  0  0  0  0  0  0  0  0
  126.9672  144.8843  148.4603 C   0  0  0  0  0  0  0  0  0  0  0  0
  126.5807  146.5988  148.6725 Cl  0  0  0  0  0  0  0  0  0  0  0  0
  127.7166  144.2094  149.3911 C   0  0  0  0  0  0  0  0  0  0  0  0
  128.2802  145.0734  150.7957 Cl  0  0  0  0  0  0  0  0  0  0  0  0
  128.0216  142.8609  149.2254 C   0  0  0  0  0  0  0  0  0  0  0  0
  1  2  1  0
  2  3  1  0
  3  4  3  0
  4  5  1  0
  5  6  2  3
  6  7  1  0
  7  8  2  3
  8  9  1  0
  9 10  1  0
 10 11  1  0
 11 12  1  0
 12 13  2  0
 13 14  1  0
 14 15  2  0
 15 16  1  0
  9 17  1  0
 17 18  2  0
 18 19  1  0
 19 20  2  0
 20 21  1  0
 20 22  1  0
 22 23  1  0
 22 24  2  0
 16 12  1  0
 24 17  1  0
M  END
$$$$
