
     RDKit          3D

  8  8  0  0  0  0  0  0  0  0999 V2000
    1.1001   22.0150  -61.6599 C   0  0  0  0  0  0  0  0  0  0  0  0
    0.1565   23.3127  -62.6612 C   0  0  0  0  0  0  0  0  0  0  0  0
    0.4313   22.6859  -64.2648 Cl  0  0  0  0  0  0  0  0  0  0  0  0
   -0.5499   22.8706  -61.9737 C   0  0  0  0  0  0  0  0  0  0  0  0
   -1.3415   22.3904  -61.1938 P   0  0  0  0  0  5  0  0  0  0  0  0
   -3.5750   21.1072  -59.0039 Cl  0  0  0  0  0  0  0  0  0  0  0  0
   -1.9911   21.9810  -60.5311 C   0  0  0  0  0  0  0  0  0  0  0  0
   -1.2234   21.3444  -62.7090 C   0  0  0  0  0  0  0  0  0  0  0  0
  1  2  1  0
  2  3  1  0
  2  4  1  0
  4  5  3  0
  5  6  1  0
  5  7  1  0
  7  8  1  0
  8  2  1  0
M  END
$$$$
