
     RDKit          3D

 19 20  0  0  0  0  0  0  0  0999 V2000
  149.0417  144.5034  140.5467 C   0  0  0  0  0  0  0  0  0  0  0  0
  148.8511  145.9314  140.2975 C   0  0  0  0  0  0  0  0  0  0  0  0
  148.6256  145.9633  138.7662 C   0  0  0  0  0  0  0  0  0  0  0  0
  150.0639  145.7268  138.3265 C   0  0  0  0  0  0  0  0  0  0  0  0
  150.7410  146.6797  139.2553 C   0  0  0  0  0  0  0  0  0  0  0  0
  150.0534  146.8074  140.3802 C   0  0  0  0  0  0  0  0  0  0  0  0
  150.3312  147.7043  141.5527 C   0  0  0  0  0  0  0  0  0  0  0  0
  150.7757  149.0988  141.0530 C   0  0  0  0  0  0  0  0  0  0  0  0
  152.1490  149.0716  140.8187 O   0  0  0  0  0  0  0  0  0  0  0  0
  151.3462  147.2809  142.4468 N   0  0  0  0  0  0  0  0  0  0  0  0
  151.7350  145.9847  142.8512 C   0  0  0  0  0  0  0  0  0  0  0  0
  151.0107  145.2213  143.5609 N   0  0  0  0  0  0  0  0  0  0  0  0
  149.7021  145.4346  144.1097 C   0  0  0  0  0  0  0  0  0  0  0  0
  148.7959  144.3584  143.7771 N   0  0  0  0  0  0  0  0  0  0  0  0
  147.4045  144.3930  143.6061 C   0  0  0  0  0  0  0  0  0  0  0  0
  146.6687  145.1697  142.8529 C   0  0  0  0  0  0  0  0  0  0  0  0
  146.9193  146.2425  141.9424 C   0  0  0  0  0  0  0  0  0  0  0  0
  147.6996  146.5800  140.9865 C   0  0  0  0  0  0  0  0  0  0  0  0
  147.4636  148.1849  140.1496 Cl  0  0  0  0  0  0  0  0  0  0  0  0
  1  2  1  0
  2  3  1  0
  3  4  1  0
  4  5  1  0
  5  6  2  0
  6  7  1  0
  7  8  1  0
  8  9  1  0
  7 10  1  0
 10 11  1  0
 11 12  2  0
 12 13  1  0
 13 14  1  0
 14 15  1  0
 15 16  2  0
 16 17  1  0
 17 18  2  0
 18 19  1  0
  6  2  1  0
 18  2  1  0
M  END
$$$$
