
     RDKit          3D

 22 24  0  0  0  0  0  0  0  0999 V2000
    8.3419   35.3410   19.1051 Cl  0  0  0  0  0  0  0  0  0  0  0  0
    8.6680   34.0775   20.2361 C   0  0  0  0  0  0  0  0  0  0  0  0
    8.9015   32.7601   19.8505 C   0  0  0  0  0  0  0  0  0  0  0  0
    9.1474   31.7650   20.7909 C   0  0  0  0  0  0  0  0  0  0  0  0
    9.1681   31.9610   22.1516 C   0  0  0  0  0  0  0  0  0  0  0  0
    8.9679   33.2633   22.5321 C   0  0  0  0  0  0  0  0  0  0  0  0
    8.7164   34.2880   21.6090 C   0  0  0  0  0  0  0  0  0  0  0  0
    9.4271   33.8321   23.8198 N   0  0  0  0  0  0  0  0  0  0  0  0
   10.8037   33.4796   24.2868 C   0  0  0  0  0  0  0  0  0  0  0  0
   10.7202   33.3118   25.7805 C   0  0  0  0  0  0  0  0  0  0  0  0
   11.7289   33.6950   26.5714 C   0  0  0  0  0  0  0  0  0  0  0  0
   13.0097   34.3108   26.1097 C   0  0  0  0  0  0  0  0  0  0  0  0
   13.6915   35.2764   27.5082 Cl  0  0  0  0  0  0  0  0  0  0  0  0
   14.0106   33.5017   25.7788 O   0  0  0  0  0  0  0  0  0  0  0  0
   14.4331   33.1089   24.6033 C   0  0  0  0  0  0  0  0  0  0  0  0
   13.8992   33.3563   23.2835 C   0  0  0  0  0  0  0  0  0  0  0  0
   13.3523   32.2988   22.4589 N   0  0  0  0  0  0  0  0  0  0  0  0
   11.9819   31.7552   22.5903 C   0  0  0  0  0  0  0  0  0  0  0  0
   11.4814   30.9813   21.7704 N   0  0  0  0  0  0  0  0  0  0  0  0
   11.1123   30.1296   20.7417 C   0  0  0  0  0  0  0  0  0  0  0  0
    9.8269   30.6220   20.1443 N   0  0  0  0  0  0  0  0  0  0  0  0
   11.3778   32.2772   23.8158 C   0  0  0  0  0  0  0  0  0  0  0  0
  1  2  1  0
  2  3  2  0
  3  4  1  0
  4  5  2  0
  5  6  1  0
  6  7  2  0
  6  8  1  0
  8  9  1  0
  9 10  1  0
 10 11  2  0
 11 12  1  0
 12 13  1  0
 12 14  1  0
 14 15  1  0
 15 16  1  0
 16 17  1  0
 17 18  1  0
 18 19  2  0
 19 20  1  0
 20 21  1  0
 18 22  1  0
  7  2  1  0
 22  9  1  0
 21  4  1  0
M  END
$$$$
