
     RDKit          3D

 25 27  0  0  0  0  0  0  0  0999 V2000
  146.3201  149.2452  152.4689 C   0  0  0  0  0  0  0  0  0  0  0  0
  147.1024  148.5501  151.3905 C   0  0  0  0  0  0  0  0  0  0  0  0
  146.5472  148.6753  150.1018 O   0  0  0  0  0  0  0  0  0  0  0  0
  147.1973  149.1893  149.0146 C   0  0  0  0  0  0  0  0  0  0  0  0
  146.6556  149.0498  147.7654 C   0  0  0  0  0  0  0  0  0  0  0  0
  147.3588  149.5917  146.6893 C   0  0  0  0  0  0  0  0  0  0  0  0
  148.5437  150.2310  146.9241 C   0  0  0  0  0  0  0  0  0  0  0  0
  149.0968  150.3719  148.2114 C   0  0  0  0  0  0  0  0  0  0  0  0
  150.3225  151.0501  148.3284 N   0  0  0  0  0  0  0  0  0  0  0  0
  150.7903  152.1453  147.5918 C   0  0  0  0  0  0  0  0  0  0  0  0
  150.0924  152.5961  146.6624 O   0  0  0  0  0  0  0  0  0  0  0  0
  152.0872  152.8228  147.8448 C   0  0  0  0  0  0  0  0  0  0  0  0
  152.4932  153.6703  146.7447 N   0  0  0  0  0  0  0  0  0  0  0  0
  152.6652  153.2371  145.4993 C   0  0  0  0  0  0  0  0  0  0  0  0
  152.4576  152.0096  145.2807 O   0  0  0  0  0  0  0  0  0  0  0  0
  153.0447  154.0847  144.5255 N   0  0  0  0  0  0  0  0  0  0  0  0
  153.2717  155.3943  144.7329 C   0  0  0  0  0  0  0  0  0  0  0  0
  153.6660  156.2523  143.6991 C   0  0  0  0  0  0  0  0  0  0  0  0
  153.8927  157.5919  143.9370 C   0  0  0  0  0  0  0  0  0  0  0  0
  153.7184  158.0682  145.2358 C   0  0  0  0  0  0  0  0  0  0  0  0
  153.3296  157.2037  146.2374 C   0  0  0  0  0  0  0  0  0  0  0  0
  153.0988  155.8634  146.0179 C   0  0  0  0  0  0  0  0  0  0  0  0
  152.7098  154.9816  147.0032 C   0  0  0  0  0  0  0  0  0  0  0  0
  152.5576  155.4391  148.1782 O   0  0  0  0  0  0  0  0  0  0  0  0
  148.4047  149.8400  149.2590 C   0  0  0  0  0  0  0  0  0  0  0  0
  1  2  1  0
  2  3  1  0
  3  4  1  0
  4  5  2  0
  5  6  1  0
  6  7  2  0
  7  8  1  0
  8  9  1  0
  9 10  1  0
 10 11  2  0
 10 12  1  0
 12 13  1  0
 13 14  1  0
 14 15  2  0
 14 16  1  0
 16 17  1  0
 17 18  2  0
 18 19  1  0
 19 20  2  0
 20 21  1  0
 21 22  2  0
 22 23  1  0
 23 24  2  0
  8 25  2  0
 25  4  1  0
 23 13  1  0
 22 17  1  0
M  END
$$$$
