
     RDKit          3D

 39 39  0  0  0  0  0  0  0  0999 V2000
   36.9908   22.1238    9.4691 C   0  0  0  0  0  0  0  0  0  0  0  0
   35.9235   22.4168   10.4747 C   0  0  0  0  0  0  0  0  0  0  0  0
   34.8171   21.3975   10.5538 C   0  0  0  0  0  0  0  0  0  0  0  0
   34.8881   20.5517   11.6787 N   0  0  0  0  0  0  0  0  0  0  0  0
   33.8221   19.5249   11.8762 C   0  0  0  0  0  0  0  0  0  0  0  0
   33.4270   19.5869   13.0677 C   0  0  0  0  0  0  0  0  0  0  0  0
   32.8843   19.7871   14.3114 C   0  0  0  0  0  0  0  0  0  0  0  0
   32.2507   18.6792   14.9257 C   0  0  0  0  0  0  0  0  0  0  0  0
   31.7139   19.0657   16.2202 C   0  0  0  0  0  0  0  0  0  0  0  0
   31.2315   19.3947   17.3570 C   0  0  0  0  0  0  0  0  0  0  0  0
   30.7050   19.7304   18.5477 O   0  0  0  0  0  0  0  0  0  0  0  0
   31.6823   19.5354   19.5808 O   0  0  0  0  0  0  0  0  0  0  0  0
   31.3678   19.7252   20.8686 C   0  0  0  0  0  0  0  0  0  0  0  0
   30.4797   19.1509   21.6790 C   0  0  0  0  0  0  0  0  0  0  0  0
   30.1834   19.3921   22.9688 C   0  0  0  0  0  0  0  0  0  0  0  0
   30.8985   20.4203   23.6472 C   0  0  0  0  0  0  0  0  0  0  0  0
   31.8399   21.0322   22.8118 C   0  0  0  0  0  0  0  0  0  0  0  0
   32.1235   20.7842   21.5669 C   0  0  0  0  0  0  0  0  0  0  0  0
   33.1900   21.3757   20.8139 N   0  0  0  0  0  0  0  0  0  0  0  0
   33.9053   22.3894   21.2788 C   0  0  0  0  0  0  0  0  0  0  0  0
   35.1247   22.8464   20.6252 C   0  0  0  0  0  0  0  0  0  0  0  0
   35.1053   24.2585   20.1995 N   0  0  0  0  0  0  0  0  0  0  0  0
   36.0963   24.7481   19.4284 C   0  0  0  0  0  0  0  0  0  0  0  0
   36.8618   25.3764   18.6977 C   0  0  0  0  0  0  0  0  0  0  0  0
   36.7030   24.9453   17.2058 C   0  0  0  0  0  0  0  0  0  0  0  0
   37.0705   23.7305   16.9562 C   0  0  0  0  0  0  0  0  0  0  0  0
   37.3347   22.5124   16.5551 C   0  0  0  0  0  0  0  0  0  0  0  0
   37.8564   21.4728   16.0150 N   0  0  0  0  0  0  0  0  0  0  0  0
   33.3754   22.9751   22.5229 N   0  0  0  0  0  0  0  0  0  0  0  0
   34.1791   22.8926   23.6204 C   0  0  0  0  0  0  0  0  0  0  0  0
   34.9775   22.9823   24.5577 C   0  0  0  0  0  0  0  0  0  0  0  0
   34.8736   22.1825   25.8533 C   0  0  0  0  0  0  0  0  0  0  0  0
   33.6083   22.2561   26.3157 C   0  0  0  0  0  0  0  0  0  0  0  0
   32.8284   23.8397   26.2263 Cl  0  0  0  0  0  0  0  0  0  0  0  0
   32.9626   21.1766   26.8340 O   0  0  0  0  0  0  0  0  0  0  0  0
   33.2471   19.8396   26.7718 C   0  0  0  0  0  0  0  0  0  0  0  0
   32.3254   19.0267   27.6801 C   0  0  0  0  0  0  0  0  0  0  0  0
   32.4601   19.5028   29.0498 N   0  0  0  0  0  0  0  0  0  0  0  0
   31.6797   18.6420   29.9524 C   0  0  0  0  0  0  0  0  0  0  0  0
  1  2  1  0
  2  3  1  0
  3  4  1  0
  4  5  1  0
  5  6  2  3
  6  7  1  0
  7  8  2  3
  8  9  1  0
  9 10  3  0
 10 11  1  0
 11 12  1  0
 12 13  1  0
 13 14  2  0
 14 15  1  0
 15 16  2  0
 16 17  1  0
 17 18  2  0
 18 19  1  0
 19 20  2  3
 20 21  1  0
 21 22  1  0
 22 23  1  0
 23 24  2  3
 24 25  1  0
 25 26  2  0
 26 27  2  0
 27 28  2  0
 20 29  1  0
 29 30  1  0
 30 31  2  3
 31 32  1  0
 32 33  2  3
 33 34  1  0
 33 35  1  0
 35 36  1  0
 36 37  1  0
 37 38  1  0
 38 39  1  0
 18 13  1  0
M  END
$$$$
