
     RDKit          3D

 39 39  0  0  0  0  0  0  0  0999 V2000
   45.8825   41.3897   16.3100 C   0  0  0  0  0  0  0  0  0  0  0  0
   45.1856   41.6432   17.6087 C   0  0  0  0  0  0  0  0  0  0  0  0
   43.7453   42.0691   17.4933 C   0  0  0  0  0  0  0  0  0  0  0  0
   43.1582   42.4625   18.7125 N   0  0  0  0  0  0  0  0  0  0  0  0
   41.7057   42.8086   18.7339 C   0  0  0  0  0  0  0  0  0  0  0  0
   41.3952   43.1460   19.9040 C   0  0  0  0  0  0  0  0  0  0  0  0
   40.9458   43.6367   21.1035 C   0  0  0  0  0  0  0  0  0  0  0  0
   39.5477   43.6114   21.3287 C   0  0  0  0  0  0  0  0  0  0  0  0
   39.2491   44.0884   22.6690 C   0  0  0  0  0  0  0  0  0  0  0  0
   38.9875   44.5220   23.8424 C   0  0  0  0  0  0  0  0  0  0  0  0
   38.7014   44.9591   25.0813 O   0  0  0  0  0  0  0  0  0  0  0  0
   38.6203   46.3922   25.0817 O   0  0  0  0  0  0  0  0  0  0  0  0
   38.8330   47.0920   26.2035 C   0  0  0  0  0  0  0  0  0  0  0  0
   38.0472   47.4256   27.2265 C   0  0  0  0  0  0  0  0  0  0  0  0
   38.3022   48.1535   28.3285 C   0  0  0  0  0  0  0  0  0  0  0  0
   39.6105   48.6905   28.4978 C   0  0  0  0  0  0  0  0  0  0  0  0
   40.4519   48.3460   27.4338 C   0  0  0  0  0  0  0  0  0  0  0  0
   40.1958   47.6334   26.3763 C   0  0  0  0  0  0  0  0  0  0  0  0
   41.1495   47.2225   25.3884 N   0  0  0  0  0  0  0  0  0  0  0  0
   41.1385   47.7021   24.1535 C   0  0  0  0  0  0  0  0  0  0  0  0
   39.9068   47.8641   23.3920 C   0  0  0  0  0  0  0  0  0  0  0  0
   39.9810   48.8538   22.3008 N   0  0  0  0  0  0  0  0  0  0  0  0
   40.3622   48.4738   21.0653 C   0  0  0  0  0  0  0  0  0  0  0  0
   40.8842   48.2741   19.9688 C   0  0  0  0  0  0  0  0  0  0  0  0
   40.6600   46.8043   19.4933 C   0  0  0  0  0  0  0  0  0  0  0  0
   41.2276   46.5116   18.3685 C   0  0  0  0  0  0  0  0  0  0  0  0
   41.6423   46.1367   17.1845 C   0  0  0  0  0  0  0  0  0  0  0  0
   42.2784   46.0118   16.0780 N   0  0  0  0  0  0  0  0  0  0  0  0
   42.4765   48.0149   23.6209 N   0  0  0  0  0  0  0  0  0  0  0  0
   43.3341   46.9644   23.4852 C   0  0  0  0  0  0  0  0  0  0  0  0
   44.2277   46.1369   23.2833 C   0  0  0  0  0  0  0  0  0  0  0  0
   44.0055   44.6278   23.2365 C   0  0  0  0  0  0  0  0  0  0  0  0
   44.0938   44.1309   24.4877 C   0  0  0  0  0  0  0  0  0  0  0  0
   45.2846   44.8869   25.5527 Cl  0  0  0  0  0  0  0  0  0  0  0  0
   43.3185   43.0969   24.9128 O   0  0  0  0  0  0  0  0  0  0  0  0
   41.9866   42.8365   24.7378 C   0  0  0  0  0  0  0  0  0  0  0  0
   41.2527   42.7415   26.0748 C   0  0  0  0  0  0  0  0  0  0  0  0
   41.9168   41.7568   26.9175 N   0  0  0  0  0  0  0  0  0  0  0  0
   41.1212   41.5285   28.1338 C   0  0  0  0  0  0  0  0  0  0  0  0
  1  2  1  0
  2  3  1  0
  3  4  1  0
  4  5  1  0
  5  6  2  3
  6  7  1  0
  7  8  2  3
  8  9  1  0
  9 10  3  0
 10 11  1  0
 11 12  1  0
 12 13  1  0
 13 14  2  0
 14 15  1  0
 15 16  2  0
 16 17  1  0
 17 18  2  0
 18 19  1  0
 19 20  2  3
 20 21  1  0
 21 22  1  0
 22 23  1  0
 23 24  2  3
 24 25  1  0
 25 26  2  0
 26 27  2  0
 27 28  2  0
 20 29  1  0
 29 30  1  0
 30 31  2  3
 31 32  1  0
 32 33  2  3
 33 34  1  0
 33 35  1  0
 35 36  1  0
 36 37  1  0
 37 38  1  0
 38 39  1  0
 18 13  1  0
M  END
$$$$
