
     RDKit          3D

 17 16  0  0  0  0  0  0  0  0999 V2000
  151.5135  150.1968  145.4898 Br  0  0  0  0  0  0  0  0  0  0  0  0
  148.2418  149.5338  145.8686 C   0  0  0  0  0  0  0  0  0  0  0  0
  149.3148  148.8668  145.2983 O   0  0  0  0  0  0  0  0  0  0  0  0
  150.2918  148.6396  146.2581 C   0  0  0  0  0  0  0  0  0  0  0  0
  150.5515  147.1763  146.4833 C   0  0  0  0  0  0  0  0  0  0  0  0
  151.5606  149.4057  145.9125 C   0  0  0  0  0  0  0  0  0  0  0  0
  152.1167  149.0470  144.6723 N   0  0  0  0  0  0  0  0  0  0  0  0
  152.5534  149.7087  143.6983 C   0  0  0  0  0  0  0  0  0  0  0  0
  153.0857  149.0964  142.5054 N   0  0  0  0  0  0  0  0  0  0  0  0
  152.5049  151.1248  143.8228 N   0  0  0  0  0  0  0  0  0  0  0  0
  153.0750  151.8670  144.8574 C   0  0  0  0  0  0  0  0  0  0  0  0
  153.9364  151.4401  145.8030 C   0  0  0  0  0  0  0  0  0  0  0  0
  154.4376  152.2579  146.7924 C   0  0  0  0  0  0  0  0  0  0  0  0
  154.0619  153.6078  146.8590 C   0  0  0  0  0  0  0  0  0  0  0  0
  153.1819  154.0752  145.9056 C   0  0  0  0  0  0  0  0  0  0  0  0
  152.7603  155.5234  145.9528 C   0  0  0  0  0  0  0  0  0  0  0  0
  152.7163  153.2215  144.9479 C   0  0  0  0  0  0  0  0  0  0  0  0
  2  3  1  0
  3  4  1  0
  4  5  1  0
  4  6  1  0
  6  7  1  0
  7  8  2  3
  8  9  1  0
  8 10  1  0
 10 11  1  0
 11 12  2  0
 12 13  1  0
 13 14  2  0
 14 15  1  0
 15 16  1  0
 15 17  2  0
 17 11  1  0
M  END
$$$$
