
     RDKit          3D

 21 21  0  0  0  0  0  0  0  0999 V2000
   29.5711   53.5623   29.8872 C   0  0  0  0  0  0  0  0  0  0  0  0
   28.9673   52.9534   29.0388 C   0  0  0  0  0  0  0  0  0  0  0  0
   28.2506   52.2094   28.0144 C   0  0  0  0  0  0  0  0  0  0  0  0
   28.1335   52.7052   26.8032 C   0  0  0  0  0  0  0  0  0  0  0  0
   28.6315   54.0827   26.5947 C   0  0  0  0  0  0  0  0  0  0  0  0
   27.5942   54.9290   26.0492 N   0  0  0  0  0  0  0  0  0  0  0  0
   26.7633   54.6826   25.0969 C   0  0  0  0  0  0  0  0  0  0  0  0
   26.6040   53.5199   24.2930 N   0  0  0  0  0  0  0  0  0  0  0  0
   26.1333   53.7134   22.9377 C   0  0  0  0  0  0  0  0  0  0  0  0
   24.7348   53.2349   22.7654 C   0  0  0  0  0  0  0  0  0  0  0  0
   23.7001   53.8270   23.3297 C   0  0  0  0  0  0  0  0  0  0  0  0
   22.6016   53.0249   24.4338 Cl  0  0  0  0  0  0  0  0  0  0  0  0
   27.0531   53.0225   21.9958 C   0  0  0  0  0  0  0  0  0  0  0  0
   28.1816   53.5544   21.5674 C   0  0  0  0  0  0  0  0  0  0  0  0
   29.2444   54.3514   22.6966 Cl  0  0  0  0  0  0  0  0  0  0  0  0
   26.8702   52.1908   24.7174 N   0  0  0  0  0  0  0  0  0  0  0  0
   27.5296   51.8405   25.7995 C   0  0  0  0  0  0  0  0  0  0  0  0
   27.6772   50.4450   26.0280 N   0  0  0  0  0  0  0  0  0  0  0  0
   26.8175   49.5217   25.3066 C   0  0  0  0  0  0  0  0  0  0  0  0
   27.5602   48.9389   24.1132 C   0  0  0  0  0  0  0  0  0  0  0  0
   27.0011   49.5189   22.9598 O   0  0  0  0  0  0  0  0  0  0  0  0
  1  2  3  0
  2  3  1  0
  3  4  2  3
  4  5  1  0
  5  6  1  0
  6  7  2  0
  7  8  1  0
  8  9  1  0
  9 10  1  0
 10 11  2  3
 11 12  1  0
  9 13  1  0
 13 14  2  3
 14 15  1  0
  8 16  1  0
 16 17  2  0
 17 18  1  0
 18 19  1  0
 19 20  1  0
 20 21  1  0
 17  4  1  0
M  END
$$$$
