
     RDKit          3D

 21 21  0  0  0  0  0  0  0  0999 V2000
   -0.4935   27.6003   12.6597 C   0  0  0  0  0  0  0  0  0  0  0  0
   -0.9551   26.9243   11.7736 C   0  0  0  0  0  0  0  0  0  0  0  0
   -1.5016   26.1148   10.6954 C   0  0  0  0  0  0  0  0  0  0  0  0
   -2.6788   26.4041   10.1884 C   0  0  0  0  0  0  0  0  0  0  0  0
   -3.1621   27.7903   10.3716 C   0  0  0  0  0  0  0  0  0  0  0  0
   -4.4566   27.8044   11.0149 N   0  0  0  0  0  0  0  0  0  0  0  0
   -5.4905   27.0757   10.7736 C   0  0  0  0  0  0  0  0  0  0  0  0
   -5.6845   26.0430    9.8146 N   0  0  0  0  0  0  0  0  0  0  0  0
   -7.0225   25.8731    9.2886 C   0  0  0  0  0  0  0  0  0  0  0  0
   -7.3902   24.4360    9.1692 C   0  0  0  0  0  0  0  0  0  0  0  0
   -7.6117   23.6636   10.2151 C   0  0  0  0  0  0  0  0  0  0  0  0
   -8.0585   21.9735   10.1007 Cl  0  0  0  0  0  0  0  0  0  0  0  0
   -7.1237   26.5603    7.9742 C   0  0  0  0  0  0  0  0  0  0  0  0
   -8.2702   26.9405    7.4441 C   0  0  0  0  0  0  0  0  0  0  0  0
   -8.5453   28.6272    7.0990 Cl  0  0  0  0  0  0  0  0  0  0  0  0
   -4.6701   25.1710    9.3370 N   0  0  0  0  0  0  0  0  0  0  0  0
   -3.3748   25.3273    9.4985 C   0  0  0  0  0  0  0  0  0  0  0  0
   -2.5398   24.3252    8.9328 N   0  0  0  0  0  0  0  0  0  0  0  0
   -3.1531   23.2480    8.1741 C   0  0  0  0  0  0  0  0  0  0  0  0
   -3.5018   22.0900    9.0975 C   0  0  0  0  0  0  0  0  0  0  0  0
   -4.8694   22.2096    9.4058 O   0  0  0  0  0  0  0  0  0  0  0  0
  1  2  3  0
  2  3  1  0
  3  4  2  3
  4  5  1  0
  5  6  1  0
  6  7  2  0
  7  8  1  0
  8  9  1  0
  9 10  1  0
 10 11  2  3
 11 12  1  0
  9 13  1  0
 13 14  2  3
 14 15  1  0
  8 16  1  0
 16 17  2  0
 17 18  1  0
 18 19  1  0
 19 20  1  0
 20 21  1  0
 17  4  1  0
M  END
$$$$
