
     RDKit          3D

 38 42  0  0  0  0  0  0  0  0999 V2000
   21.4037   12.0082  -29.3727 C   0  0  0  0  0  0  0  0  0  0  0  0
   20.9421   10.9732  -30.1931 O   0  0  0  0  0  0  0  0  0  0  0  0
   19.7393   10.3470  -29.9063 C   0  0  0  0  0  0  0  0  0  0  0  0
   19.4446    9.0710  -30.3702 C   0  0  0  0  0  0  0  0  0  0  0  0
   18.2516    8.4383  -30.0913 C   0  0  0  0  0  0  0  0  0  0  0  0
   17.3150    9.0726  -29.3342 C   0  0  0  0  0  0  0  0  0  0  0  0
   16.0631    8.5483  -28.9751 N   0  0  0  0  0  0  0  0  0  0  0  0
   14.9401    8.6183  -29.8341 C   0  0  0  0  0  0  0  0  0  0  0  0
   13.7566    8.1452  -29.5456 C   0  0  0  0  0  0  0  0  0  0  0  0
   12.6464    8.2824  -30.5430 C   0  0  0  0  0  0  0  0  0  0  0  0
   11.4676    8.4328  -30.1380 O   0  0  0  0  0  0  0  0  0  0  0  0
   13.0275    8.2299  -31.9634 C   0  0  0  0  0  0  0  0  0  0  0  0
   14.4779    8.4257  -32.2363 C   0  0  0  0  0  0  0  0  0  0  0  0
   15.2080    7.1040  -32.3807 C   0  0  0  0  0  0  0  0  0  0  0  0
   14.6388    9.1577  -33.5512 C   0  0  0  0  0  0  0  0  0  0  0  0
   15.1505    9.2948  -31.1723 C   0  0  0  0  0  0  0  0  0  0  0  0
   13.4939    7.4955  -28.2800 C   0  0  0  0  0  0  0  0  0  0  0  0
   12.7230    6.2513  -28.3792 C   0  0  0  0  0  0  0  0  0  0  0  0
   11.4341    6.2333  -27.9377 C   0  0  0  0  0  0  0  0  0  0  0  0
   10.6880    5.0644  -28.0232 C   0  0  0  0  0  0  0  0  0  0  0  0
   11.2489    3.9210  -28.5543 C   0  0  0  0  0  0  0  0  0  0  0  0
   10.4799    2.7605  -28.6294 O   0  0  0  0  0  0  0  0  0  0  0  0
    9.1849    2.6606  -28.1248 C   0  0  0  0  0  0  0  0  0  0  0  0
   12.5496    3.9262  -29.0037 C   0  0  0  0  0  0  0  0  0  0  0  0
   13.0659    2.7587  -29.5264 O   0  0  0  0  0  0  0  0  0  0  0  0
   14.4449    2.7092  -29.8354 C   0  0  0  0  0  0  0  0  0  0  0  0
   13.2722    5.1226  -28.9019 C   0  0  0  0  0  0  0  0  0  0  0  0
   14.6415    7.4162  -27.3902 C   0  0  0  0  0  0  0  0  0  0  0  0
   15.8136    7.8965  -27.7070 C   0  0  0  0  0  0  0  0  0  0  0  0
   17.0237    7.8336  -26.8400 C   0  0  0  0  0  0  0  0  0  0  0  0
   16.8361    7.4463  -25.4444 C   0  0  0  0  0  0  0  0  0  0  0  0
   17.5791    6.1232  -25.1947 C   0  0  0  0  0  0  0  0  0  0  0  0
   17.5346    8.4560  -24.5356 C   0  0  0  0  0  0  0  0  0  0  0  0
   15.4248    7.2104  -25.0060 C   0  0  0  0  0  0  0  0  0  0  0  0
   14.5356    6.7693  -26.0668 C   0  0  0  0  0  0  0  0  0  0  0  0
   13.6918    5.8783  -25.9205 O   0  0  0  0  0  0  0  0  0  0  0  0
   17.6078   10.3511  -28.8682 C   0  0  0  0  0  0  0  0  0  0  0  0
   18.7868   10.9853  -29.1396 C   0  0  0  0  0  0  0  0  0  0  0  0
  1  2  1  0
  2  3  1  0
  3  4  2  0
  4  5  1  0
  5  6  2  0
  6  7  1  0
  7  8  1  0
  8  9  2  0
  9 10  1  0
 10 11  2  0
 10 12  1  0
 12 13  1  0
 13 14  1  0
 13 15  1  0
 13 16  1  0
  9 17  1  0
 17 18  1  0
 18 19  2  0
 19 20  1  0
 20 21  2  0
 21 22  1  0
 22 23  1  0
 21 24  1  0
 24 25  1  0
 25 26  1  0
 24 27  2  0
 17 28  1  0
 28 29  2  0
 29 30  1  0
 30 31  1  0
 31 32  1  0
 31 33  1  0
 31 34  1  0
 34 35  1  0
 35 36  2  0
  6 37  1  0
 37 38  2  0
 38  3  1  0
 29  7  1  0
 16  8  1  0
 27 18  1  0
 35 28  1  0
M  END
$$$$
