@<TRIPOS>MOLECULE
ligand_214.pdb
   29    30     1     0     0
SMALL
gas


@<TRIPOS>ATOM
      1 O1          -3.5300    -1.3690    -0.1560 o          1 UNL      -0.260968
      2 C1          -2.7440    -1.3430     0.7770 c          1 UNL       0.290465
      3 C2          -2.9030    -2.1340     1.9960 cc         1 UNL       0.013603
      4 C3          -1.8670    -1.8210     2.7630 cd         1 UNL      -0.025274
      5 C4          -1.0560    -0.8710     2.0820 cd         1 UNL       0.084492
      6 C5           0.0700    -0.3270     2.5630 c2         1 UNL      -0.022731
      7 C6           1.0090     0.6600     1.9140 c3         1 UNL       0.098737
      8 O2           0.9080     1.8850     2.6470 oh         1 UNL      -0.386505
      9 C7           0.8460     0.9680     0.4160 c3         1 UNL       0.082963
     10 O3           1.1740    -0.1990    -0.3420 os         1 UNL      -0.343099
     11 C8           1.0560    -0.1120    -1.7010 ca         1 UNL       0.075031
     12 C9           1.3520    -1.2930    -2.3880 ca         1 UNL      -0.031797
     13 C10          1.2730    -1.3450    -3.7810 ca         1 UNL      -0.059668
     14 C11          0.8970    -0.2120    -4.4970 ca         1 UNL      -0.062084
     15 C12          0.6000     0.9690    -3.8190 ca         1 UNL      -0.059668
     16 C13          0.6790     1.0210    -2.4240 ca         1 UNL      -0.031797
     17 O4          -1.6100    -0.5790     0.8470 os         1 UNL      -0.275031
     18 H1          -3.7160    -2.8110     2.1770 ha         1 UNL       0.068831
     19 H2          -1.6680    -2.2220     3.7450 ha         1 UNL       0.065279
     20 H3           0.3910    -0.6390     3.5560 ha         1 UNL       0.063196
     21 H4           2.0260     0.2760     2.0610 h1         1 UNL       0.067197
     22 H5           1.0920     1.6870     3.5800 ho         1 UNL       0.211039
     23 H6           1.5400     1.7790     0.1550 h1         1 UNL       0.060342
     24 H7          -0.1700     1.3220     0.2040 h1         1 UNL       0.060342
     25 H8           1.6430    -2.1800    -1.8330 ha         1 UNL       0.065044
     26 H9           1.5030    -2.2700    -4.3030 ha         1 UNL       0.062369
     27 H10          0.8310    -0.2490    -5.5810 ha         1 UNL       0.062276
     28 H11          0.3030     1.8540    -4.3770 ha         1 UNL       0.062369
     29 H12          0.4390     1.9590    -1.9350 ha         1 UNL       0.065044
@<TRIPOS>BOND
     1     1     2 2   
     2     2     3 1   
     3     2    17 1   
     4     3     4 2   
     5     3    18 1   
     6     4     5 1   
     7     4    19 1   
     8     5     6 2   
     9     5    17 1   
    10     6     7 1   
    11     6    20 1   
    12     7     8 1   
    13     7     9 1   
    14     7    21 1   
    15     8    22 1   
    16     9    10 1   
    17     9    23 1   
    18     9    24 1   
    19    10    11 1   
    20    11    12 ar  
    21    11    16 ar  
    22    12    13 ar  
    23    12    25 1   
    24    13    14 ar  
    25    13    26 1   
    26    14    15 ar  
    27    14    27 1   
    28    15    16 ar  
    29    15    28 1   
    30    16    29 1   
@<TRIPOS>SUBSTRUCTURE
     1 UNL         1 TEMP              0 ****  ****    0 ROOT
