@<TRIPOS>MOLECULE
ligand_214.pdb
 38 39 0 0 0
SMALL
GASTEIGER

@<TRIPOS>ATOM
      1  C1        -2.2670    0.8460    1.1410 C.3     1  UNL1       -0.0362
      2  C2        -0.7880    0.6960    1.3770 C.ar    1  UNL1       -0.0080
      3  C3        -0.2420    1.0890    2.6140 C.ar    1  UNL1       -0.0447
      4  C4         1.1230    0.9500    2.8610 C.ar    1  UNL1        0.0181
      5  C5         1.7260    1.3470    4.1220 C.ar    1  UNL1       -0.0443
      6  C6         3.0410    1.1880    4.3010 C.ar    1  UNL1        0.0236
      7  C7         3.9170    0.6210    3.2620 C.ar    1  UNL1        0.3372
      8  O1         5.1190    0.4890    3.4620 O.2     1  UNL1       -0.2452
      9  O2         3.3170    0.2500    2.0670 O.2     1  UNL1       -0.4220
     10  C8         1.9310    0.4120    1.8650 C.ar    1  UNL1        0.1425
     11  C9         1.4150    0.0090    0.6340 C.ar    1  UNL1        0.0234
     12  C10        0.0490    0.1470    0.3840 C.ar    1  UNL1        0.1270
     13  O3        -0.5760   -0.2200   -0.7790 O.3     1  UNL1       -0.4889
     14  C11        0.2330   -0.7390   -1.8310 C.3     1  UNL1        0.1181
     15  C12       -0.6300   -1.0520   -3.0620 C.3     1  UNL1        0.1171
     16  O4         0.2490   -1.4060   -4.1470 O.3     1  UNL1       -0.3856
     17  C13       -1.6860   -2.1790   -2.8940 C.3     1  UNL1        0.0894
     18  C14       -2.8670   -1.7590   -2.0170 C.3     1  UNL1       -0.0338
     19  C15       -1.0910   -3.4920   -2.3700 C.3     1  UNL1       -0.0338
     20  O5        -2.2330   -2.4380   -4.2070 O.3     1  UNL1       -0.3865
     21  H1        -2.7450    1.4190    1.9420 H       1  UNL1        0.0279
     22  H2        -2.7420   -0.1390    1.1000 H       1  UNL1        0.0279
     23  H3        -2.4540    1.3800    0.2040 H       1  UNL1        0.0279
     24  H4        -0.8930    1.5060    3.3800 H       1  UNL1        0.0628
     25  H5         1.0990    1.7670    4.9010 H       1  UNL1        0.0627
     26  H6         3.5300    1.4710    5.2250 H       1  UNL1        0.0689
     27  H7         2.1010   -0.4050   -0.0970 H       1  UNL1        0.0691
     28  H8         0.9860    0.0060   -2.1220 H       1  UNL1        0.0724
     29  H9         0.7650   -1.6410   -1.5080 H       1  UNL1        0.0724
     30  H10       -1.1440   -0.1330   -3.3720 H       1  UNL1        0.0656
     31  H11       -0.3110   -1.3730   -4.9460 H       1  UNL1        0.2100
     32  H12       -3.2780   -0.7980   -2.3480 H       1  UNL1        0.0258
     33  H13       -3.6850   -2.4860   -2.0970 H       1  UNL1        0.0258
     34  H14       -2.5950   -1.6800   -0.9620 H       1  UNL1        0.0258
     35  H15       -0.2440   -3.8170   -2.9850 H       1  UNL1        0.0258
     36  H16       -1.8330   -4.2980   -2.4180 H       1  UNL1        0.0258
     37  H17       -0.7530   -3.4040   -1.3330 H       1  UNL1        0.0258
     38  H18       -1.6470   -3.0830   -4.6420 H       1  UNL1        0.2102
@<TRIPOS>BOND
     1     1     2    1
     2     1    21    1
     3     1    22    1
     4     1    23    1
     5     2     3   ar
     6     2    12   ar
     7     3     4   ar
     8     3    24    1
     9     4     5   ar
    10     4    10   ar
    11     5     6   ar
    12     5    25    1
    13     6     7   ar
    14     6    26    1
    15     7     8    2
    16     7     9   ar
    17     9    10   ar
    18    10    11   ar
    19    11    12   ar
    20    11    27    1
    21    12    13    1
    22    13    14    1
    23    14    15    1
    24    14    28    1
    25    14    29    1
    26    15    16    1
    27    15    17    1
    28    15    30    1
    29    16    31    1
    30    17    18    1
    31    17    19    1
    32    17    20    1
    33    18    32    1
    34    18    33    1
    35    18    34    1
    36    19    35    1
    37    19    36    1
    38    19    37    1
    39    20    38    1
