
     RDKit          3D

 19 19  0  0  0  0  0  0  0  0999 V2000
  127.9159  141.2971  149.2668 C   0  0  0  0  0  0  0  0  0  0  0  0
  128.0430  140.0328  148.4969 C   0  0  2  0  0  0  0  0  0  0  0  0
  129.0470  139.2739  149.1517 O   0  0  0  0  0  0  0  0  0  0  0  0
  128.4512  140.1303  147.0800 C   0  0  0  0  0  0  0  0  0  0  0  0
  127.3814  140.1700  146.0497 C   0  0  1  0  0  0  0  0  0  0  0  0
  126.5992  141.4424  145.9641 C   0  0  0  0  0  0  0  0  0  0  0  0
  128.0465  139.9997  144.7546 N   0  0  0  0  0  0  0  0  0  0  0  0
  127.7355  138.8576  143.9908 C   0  0  0  0  0  0  0  0  0  0  0  0
  126.9964  137.9420  144.5346 O   0  0  0  0  0  0  0  0  0  0  0  0
  128.1905  138.6415  142.6337 C   0  0  0  0  0  0  0  0  0  0  0  0
  127.9925  137.5175  141.8876 C   0  0  0  0  0  0  0  0  0  0  0  0
  127.3120  136.4418  142.3822 O   0  0  0  0  0  0  0  0  0  0  0  0
  128.4722  137.3979  140.5755 C   0  0  0  0  0  0  0  0  0  0  0  0
  128.2374  136.1838  139.8207 C   0  0  0  0  0  0  0  0  0  0  0  0
  128.1181  135.1001  140.4394 O   0  0  0  0  0  0  0  0  0  0  0  0
  128.1383  136.1644  138.4405 O   0  0  0  0  0  0  0  0  0  0  0  0
  129.1689  138.4353  139.9988 C   0  0  0  0  0  0  0  0  0  0  0  0
  129.3803  139.5734  140.7272 C   0  0  0  0  0  0  0  0  0  0  0  0
  128.9031  139.6629  142.0002 C   0  0  0  0  0  0  0  0  0  0  0  0
  2  1  1  1
  2  3  1  0
  2  4  1  0
  4  5  1  0
  5  6  1  6
  5  7  1  0
  7  8  1  0
  8  9  2  0
  8 10  1  0
 10 11  2  0
 11 12  1  0
 11 13  1  0
 13 14  1  0
 14 15  2  0
 14 16  1  0
 13 17  2  0
 17 18  1  0
 18 19  2  0
 19 10  1  0
M  END
$$$$
