
     RDKit          3D

 23 22  0  0  0  0  0  0  0  0999 V2000
   14.3258   26.1887    9.6103 C   0  0  0  0  0  0  0  0  0  0  0  0
   14.1821   26.7697    8.4053 C   0  0  0  0  0  0  0  0  0  0  0  0
   14.2871   27.5045    7.3432 C   0  0  0  0  0  0  0  0  0  0  0  0
   14.0842   26.8949    6.0904 N   0  0  0  0  0  0  0  0  0  0  0  0
   14.6100   28.8517    7.5689 C   0  0  0  0  0  0  0  0  0  0  0  0
   15.2921   29.2401    9.1812 Cl  0  0  0  0  0  0  0  0  0  0  0  0
   14.5039   29.8881    6.7749 C   0  0  0  0  0  0  0  0  0  0  0  0
   15.6795   30.7608    6.4121 C   0  0  0  0  0  0  0  0  0  0  0  0
   15.4035   31.7142    5.3952 N   0  0  0  0  0  0  0  0  0  0  0  0
   14.0412   31.7742    4.9140 C   0  0  0  0  0  0  0  0  0  0  0  0
   13.4802   33.1661    4.9675 C   0  0  0  0  0  0  0  0  0  0  0  0
   13.2568   33.7151    6.1565 C   0  0  0  0  0  0  0  0  0  0  0  0
   12.6674   34.9573    6.3897 N   0  0  0  0  0  0  0  0  0  0  0  0
   12.4346   35.4764    7.5061 C   0  0  0  0  0  0  0  0  0  0  0  0
   12.1942   36.0292    8.6845 N   0  0  0  0  0  0  0  0  0  0  0  0
   13.0617   35.2741   10.0794 Cl  0  0  0  0  0  0  0  0  0  0  0  0
   14.0215   31.2248    3.5934 N   0  0  0  0  0  0  0  0  0  0  0  0
   13.5499   30.2284    3.0432 C   0  0  0  0  0  0  0  0  0  0  0  0
   13.3190   29.9858    1.6018 C   0  0  0  0  0  0  0  0  0  0  0  0
   13.1352   29.0970    3.8933 N   0  0  0  0  0  0  0  0  0  0  0  0
   12.6282   27.9530    3.1815 C   0  0  0  0  0  0  0  0  0  0  0  0
   13.6902   26.8648    3.0111 C   0  0  0  0  0  0  0  0  0  0  0  0
   13.0845   25.7110    2.5021 O   0  0  0  0  0  0  0  0  0  0  0  0
  1  2  2  0
  2  3  2  0
  3  4  1  0
  3  5  1  0
  5  6  1  0
  5  7  2  3
  7  8  1  0
  8  9  1  0
  9 10  1  0
 10 11  1  0
 11 12  2  3
 12 13  1  0
 13 14  2  3
 14 15  1  0
 15 16  1  0
 10 17  1  0
 17 18  2  3
 18 19  1  0
 18 20  1  0
 20 21  1  0
 21 22  1  0
 22 23  1  0
M  END
$$$$
