
     RDKit          3D

 23 22  0  0  0  0  0  0  0  0999 V2000
   37.0538   49.4163   23.7701 C   0  0  0  0  0  0  0  0  0  0  0  0
   37.8818   49.4747   22.7113 C   0  0  0  0  0  0  0  0  0  0  0  0
   38.8847   49.4024   21.8938 C   0  0  0  0  0  0  0  0  0  0  0  0
   39.0298   50.4169   20.9284 N   0  0  0  0  0  0  0  0  0  0  0  0
   39.7231   48.2892   22.0616 C   0  0  0  0  0  0  0  0  0  0  0  0
   39.3275   46.8473   21.0717 Cl  0  0  0  0  0  0  0  0  0  0  0  0
   40.7737   48.1334   22.8282 C   0  0  0  0  0  0  0  0  0  0  0  0
   40.7790   48.5069   24.2897 C   0  0  0  0  0  0  0  0  0  0  0  0
   42.0342   48.3267   24.9309 N   0  0  0  0  0  0  0  0  0  0  0  0
   42.2584   47.0501   25.5719 C   0  0  0  0  0  0  0  0  0  0  0  0
   43.4769   46.3527   25.0390 C   0  0  0  0  0  0  0  0  0  0  0  0
   43.4788   45.9586   23.7703 C   0  0  0  0  0  0  0  0  0  0  0  0
   44.5450   45.3631   23.0970 N   0  0  0  0  0  0  0  0  0  0  0  0
   44.5462   44.9541   21.9126 C   0  0  0  0  0  0  0  0  0  0  0  0
   44.5521   44.5169   20.6633 N   0  0  0  0  0  0  0  0  0  0  0  0
   45.7089   45.3600   19.5590 Cl  0  0  0  0  0  0  0  0  0  0  0  0
   42.3290   47.2777   26.9823 N   0  0  0  0  0  0  0  0  0  0  0  0
   41.5843   47.1320   27.9529 C   0  0  0  0  0  0  0  0  0  0  0  0
   41.8817   47.3289   29.3891 C   0  0  0  0  0  0  0  0  0  0  0  0
   40.1979   46.6949   27.7047 N   0  0  0  0  0  0  0  0  0  0  0  0
   39.8456   45.4253   28.2847 C   0  0  0  0  0  0  0  0  0  0  0  0
   38.3392   45.3000   28.5222 C   0  0  0  0  0  0  0  0  0  0  0  0
   38.0851   45.3787   29.8957 O   0  0  0  0  0  0  0  0  0  0  0  0
  1  2  2  0
  2  3  2  0
  3  4  1  0
  3  5  1  0
  5  6  1  0
  5  7  2  3
  7  8  1  0
  8  9  1  0
  9 10  1  0
 10 11  1  0
 11 12  2  3
 12 13  1  0
 13 14  2  3
 14 15  1  0
 15 16  1  0
 10 17  1  0
 17 18  2  3
 18 19  1  0
 18 20  1  0
 20 21  1  0
 21 22  1  0
 22 23  1  0
M  END
$$$$
