
     RDKit          3D

 16 17  0  0  0  0  0  0  0  0999 V2000
   -0.2014  -10.5783  -63.6017 N   0  0  0  0  0  1  0  0  0  0  0  0
   -0.5287   -9.1944  -63.9131 C   0  0  0  0  0  0  0  0  0  0  0  0
    0.1952   -8.2441  -62.9780 C   0  0  0  0  0  0  0  0  0  0  0  0
   -0.5311   -8.0442  -61.7156 C   0  0  0  0  0  0  0  0  0  0  0  0
   -0.6460   -6.8368  -61.1899 C   0  0  0  0  0  0  0  0  0  0  0  0
   -1.7969   -6.0350  -61.6120 C   0  0  0  0  0  0  0  0  0  0  0  0
   -1.8804   -4.7431  -60.8979 C   0  0  0  0  0  0  0  0  0  0  0  0
   -3.3014   -4.3272  -60.6089 C   0  0  0  0  0  0  0  0  0  0  0  0
   -3.4558   -2.9851  -60.9028 O   0  0  0  0  0  0  0  0  0  0  0  0
   -1.0175   -3.9146  -60.4824 N   0  0  0  0  0  0  0  0  0  0  0  0
    0.4118   -3.9400  -60.5622 C   0  0  0  0  0  0  0  0  0  0  0  0
    0.8469   -5.2478  -59.9998 C   0  0  0  0  0  0  0  0  0  0  0  0
    0.4174   -6.4725  -60.2487 C   0  0  0  0  0  0  0  0  0  0  0  0
    1.3757   -7.0179  -59.2960 C   0  0  0  0  0  0  0  0  0  0  0  0
    1.6796   -8.3179  -58.8585 N   0  0  0  0  0  0  0  0  0  0  0  0
    1.8064   -5.7875  -59.0467 C   0  0  0  0  0  0  0  0  0  0  0  0
  1  2  1  0
  2  3  1  0
  3  4  1  0
  4  5  2  3
  5  6  1  0
  6  7  1  0
  7  8  1  0
  8  9  1  0
  7 10  2  0
 10 11  1  0
 11 12  1  0
 12 13  2  0
 13 14  1  0
 14 15  1  0
 14 16  2  0
 13  5  1  0
 16 12  1  0
M  CHG  1   1  -1
M  RAD  1   1   2
M  END
$$$$
