
     RDKit          3D

 30 33  0  0  0  0  0  0  0  0999 V2000
3172946.2500-1879112.5000-4253452.0000 C   0  0  0  0  0  0  0  0  0  0  0  0
3172946.0000-1879111.8750-4253452.5000 O   0  0  0  0  0  0  0  0  0  0  0  0
3172944.7500-1879115.2500-4253453.0000 C   0  0  0  0  0  0  0  0  0  0  0  0
3172945.2500-1879114.2500-4253450.0000 C   0  0  0  0  0  0  0  0  0  0  0  0
3172945.0000-1879116.3750-4253449.5000 C   0  0  0  0  0  0  0  0  0  0  0  0
3172943.7500-1879115.3750-4253451.5000 C   0  0  0  0  0  0  0  0  0  0  0  0
3172943.5000-1879116.3750-4253452.0000 S   0  0  0  0  0  0  0  0  0  0  0  0
3172943.2500-1879117.0000-4253455.0000 C   0  0  0  0  0  0  0  0  0  0  0  0
3172940.5000-1879116.8750-4253454.0000 N   0  0  0  0  0  0  0  0  0  0  0  0
3172939.5000-1879116.6250-4253455.5000 C   0  0  0  0  0  0  0  0  0  0  0  0
3172938.5000-1879117.1250-4253453.5000 C   0  0  0  0  0  0  0  0  0  0  0  0
3172938.2500-1879115.8750-4253452.5000 C   0  0  0  0  0  0  0  0  0  0  0  0
3172937.7500-1879115.7500-4253451.5000 C   0  0  0  0  0  0  0  0  0  0  0  0
3172938.0000-1879116.6250-4253451.5000 C   0  0  0  0  0  0  0  0  0  0  0  0
3172939.0000-1879117.7500-4253451.0000 N   0  0  0  0  0  0  0  0  0  0  0  0
3172939.5000-1879118.8750-4253453.0000 C   0  0  0  0  0  0  0  0  0  0  0  0
3172939.7500-1879114.6250-4253454.0000 C   0  0  0  0  0  0  0  0  0  0  0  0
3172939.0000-1879115.5000-4253454.5000 O   0  0  0  0  0  0  0  0  0  0  0  0
3172941.5000-1879115.3750-4253456.0000 C   0  0  0  0  0  0  0  0  0  0  0  0
3172942.5000-1879115.5000-4253455.5000 C   0  0  0  0  0  0  0  0  0  0  0  0
3172944.5000-1879116.1250-4253456.5000 C   0  0  0  0  0  0  0  0  0  0  0  0
3172943.7500-1879116.1250-4253457.5000 C   0  0  0  0  0  0  0  0  0  0  0  0
3172944.7500-1879117.5000-4253457.0000 C   0  0  0  0  0  0  0  0  0  0  0  0
3172939.2500-1879116.3750-4253456.0000 C   0  0  0  0  0  0  0  0  0  0  0  0
3172941.0000-1879116.6250-4253457.5000 N   0  0  0  0  0  4  0  0  0  0  0  0
3172939.5000-1879115.3750-4253458.0000 O   0  0  0  0  0  0  0  0  0  0  0  0
3172942.7500-1879115.3750-4253458.0000 O   0  0  0  0  0  1  0  0  0  0  0  0
3172942.0000-1879114.8750-4253454.0000 N   0  0  0  0  0  0  0  0  0  0  0  0
3172943.7500-1879114.7500-4253454.0000 C   0  0  0  0  0  0  0  0  0  0  0  0
3172944.7500-1879113.6250-4253452.5000 C   0  0  0  0  0  0  0  0  0  0  0  0
  1  2  1  0
  2  3  1  0
  3  4  2  0
  4  5  1  0
  5  6  2  0
  6  7  1  0
  7  8  1  0
  8  9  1  0
  9 10  1  0
 10 11  1  0
 11 12  2  0
 12 13  1  0
 13 14  2  0
 14 15  1  0
 15 16  2  0
  9 17  1  0
 17 18  2  0
 17 19  1  0
 19 20  2  0
 20 21  1  0
 21 22  2  0
 22 23  1  0
 23 24  2  0
 24 25  1  0
 25 26  2  0
 25 27  1  0
  8 28  2  0
 28 29  1  0
 29 30  2  0
 30  3  1  0
 29  6  1  0
 16 11  1  0
 24 19  1  0
M  CHG  2  25   1  27  -1
M  END
$$$$
