
     RDKit          3D

 20 21  0  0  0  0  0  0  0  0999 V2000
   17.6480    4.4749    6.2697 C   0  0  0  0  0  0  0  0  0  0  0  0
   16.5154    5.2094    5.8606 O   0  0  0  0  0  0  0  0  0  0  0  0
   16.0337    6.2084    6.6956 C   0  0  0  0  0  0  0  0  0  0  0  0
   16.6709    6.4659    7.8925 C   0  0  0  0  0  0  0  0  0  0  0  0
   16.1726    7.4619    8.7018 C   0  0  0  0  0  0  0  0  0  0  0  0
   16.9617    7.8323   10.2592 S   0  0  0  0  0  0  0  0  0  0  0  0
   17.4637    6.2577   11.0108 C   0  0  0  0  0  0  0  0  0  0  0  0
   15.0572    8.2154    8.3617 C   0  0  0  0  0  0  0  0  0  0  0  0
   14.4654    7.9177    7.1645 C   0  0  0  0  0  0  0  0  0  0  0  0
   14.9189    6.9454    6.3322 C   0  0  0  0  0  0  0  0  0  0  0  0
   14.3068    6.6104    5.0545 C   0  0  0  0  0  0  0  0  0  0  0  0
   14.8556    7.0742    4.0202 O   0  0  0  0  0  0  0  0  0  0  0  0
   13.1487    5.7964    5.0367 N   0  0  0  0  0  0  0  0  0  0  0  0
   12.4933    5.5150    3.8048 C   0  0  0  0  0  0  0  0  0  0  0  0
   11.0244    5.3329    3.8902 C   0  0  0  0  0  0  0  0  0  0  0  0
   10.5513    4.6583    5.1480 C   0  0  0  0  0  0  0  0  0  0  0  0
   10.7873    3.1838    5.1565 C   0  0  0  0  0  0  0  0  0  0  0  0
    9.1766    4.8806    5.2522 O   0  0  0  0  0  0  0  0  0  0  0  0
   11.1857    5.3502    6.3452 C   0  0  0  0  0  0  0  0  0  0  0  0
   12.6761    5.2777    6.3020 C   0  0  0  0  0  0  0  0  0  0  0  0
  1  2  1  0
  2  3  1  0
  3  4  2  0
  4  5  1  0
  5  6  1  0
  6  7  1  0
  5  8  2  0
  8  9  1  0
  9 10  2  0
 10 11  1  0
 11 12  2  0
 11 13  1  0
 13 14  1  0
 14 15  1  0
 15 16  1  0
 16 17  1  0
 16 18  1  0
 16 19  1  0
 19 20  1  0
 10  3  1  0
 20 13  1  0
M  END
$$$$
