
     RDKit          3D

 17 17  0  0  0  0  0  0  0  0999 V2000
    1.1295   -4.0026  -52.0043 C   0  0  0  0  0  0  0  0  0  0  0  0
    1.3958   -3.6614  -53.4145 C   0  0  0  0  0  0  0  0  0  0  0  0
    1.3211   -4.5516  -54.3733 C   0  0  0  0  0  0  0  0  0  0  0  0
    1.6998   -4.2798  -55.7518 C   0  0  0  0  0  0  0  0  0  0  0  0
    1.6716   -5.1622  -56.7065 C   0  0  0  0  0  0  0  0  0  0  0  0
    1.9477   -4.9076  -58.0698 N   0  0  0  0  0  0  0  0  0  0  0  0
    0.9406   -4.8398  -58.8706 C   0  0  0  0  0  0  0  0  0  0  0  0
    0.8491   -3.6137  -60.1407 Cl  0  0  0  0  0  0  0  0  0  0  0  0
   -0.0854   -5.7989  -58.6940 N   0  0  0  0  0  0  0  0  0  0  0  0
   -0.5358   -6.6164  -59.7427 C   0  0  0  0  0  0  0  0  0  0  0  0
   -1.4970   -7.5876  -59.4262 C   0  0  0  0  0  0  0  0  0  0  0  0
   -2.0190   -8.4564  -60.3562 C   0  0  0  0  0  0  0  0  0  0  0  0
   -1.5746   -8.3619  -61.6489 C   0  0  0  0  0  0  0  0  0  0  0  0
   -2.2320   -9.4671  -62.8608 Cl  0  0  0  0  0  0  0  0  0  0  0  0
   -0.6311   -7.4196  -61.9942 C   0  0  0  0  0  0  0  0  0  0  0  0
   -0.0729   -7.3173  -63.6847 S   0  0  0  0  0  0  0  0  0  0  0  0
   -0.1275   -6.5592  -61.0231 C   0  0  0  0  0  0  0  0  0  0  0  0
  1  2  1  0
  2  3  2  3
  3  4  1  0
  4  5  2  3
  5  6  1  0
  6  7  2  3
  7  8  1  0
  7  9  1  0
  9 10  1  0
 10 11  2  0
 11 12  1  0
 12 13  2  0
 13 14  1  0
 13 15  1  0
 15 16  1  0
 15 17  2  0
 17 10  1  0
M  END
$$$$
