
     RDKit          3D

 21 23  0  0  0  0  0  0  0  0999 V2000
  133.2188  100.3054   65.0782 C   0  0  0  0  0  0  0  0  0  0  0  0
  132.4714  101.1955   64.1106 C   0  0  0  0  0  0  0  0  0  0  0  0
  131.6896  102.1782   64.6863 N   0  0  0  0  0  0  0  0  0  0  0  0
  130.9269  103.1372   65.2482 C   0  0  0  0  0  0  0  0  0  0  0  0
  130.4472  103.3217   66.4683 N   0  0  0  0  0  0  0  0  0  0  0  0
  129.6554  104.2998   66.9039 C   0  0  0  0  0  0  0  0  0  0  0  0
  129.1369  104.3824   68.2264 N   0  0  0  0  0  0  0  0  0  0  0  0
  129.5410  103.5358   69.2729 C   0  0  0  0  0  0  0  0  0  0  0  0
  128.9203  103.4921   70.4557 C   0  0  0  0  0  0  0  0  0  0  0  0
  129.4181  102.4368   71.7602 Cl  0  0  0  0  0  0  0  0  0  0  0  0
  127.8405  104.4186   70.6816 C   0  0  0  0  0  0  0  0  0  0  0  0
  127.0008  104.3454   72.2513 Cl  0  0  0  0  0  0  0  0  0  0  0  0
  127.4772  105.2807   69.7863 C   0  0  0  0  0  0  0  0  0  0  0  0
  128.1259  105.3878   68.4822 C   0  0  0  0  0  0  0  0  0  0  0  0
  129.3093  105.2148   65.9787 N   0  0  0  0  0  0  0  0  0  0  0  0
  129.7070  105.1930   64.6830 C   0  0  0  0  0  0  0  0  0  0  0  0
  129.3195  106.1409   63.7919 C   0  0  0  0  0  0  0  0  0  0  0  0
  129.7330  106.0895   62.4621 C   0  0  0  0  0  0  0  0  0  0  0  0
  130.5405  105.0556   62.0722 C   0  0  0  0  0  0  0  0  0  0  0  0
  130.9229  104.0933   63.0101 C   0  0  0  0  0  0  0  0  0  0  0  0
  130.5127  104.1567   64.3080 C   0  0  0  0  0  0  0  0  0  0  0  0
  1  2  1  0
  2  3  1  0
  3  4  1  0
  4  5  2  0
  5  6  1  0
  6  7  1  0
  7  8  1  0
  8  9  2  0
  9 10  1  0
  9 11  1  0
 11 12  1  0
 11 13  2  0
 13 14  1  0
  6 15  2  0
 15 16  1  0
 16 17  2  0
 17 18  1  0
 18 19  2  0
 19 20  1  0
 20 21  2  0
 21  4  1  0
 14  7  1  0
 21 16  1  0
M  END
$$$$
