
     RDKit          3D

 17 17  0  0  0  0  0  0  0  0999 V2000
  128.4595  144.9521  147.7218 C   0  0  0  0  0  0  0  0  0  0  0  0
  127.5128  144.0206  148.4376 C   0  0  0  0  0  0  0  0  0  0  0  0
  128.2632  143.0862  149.3860 C   0  0  0  0  0  0  0  0  0  0  0  0
  126.5533  144.9076  149.2259 C   0  0  0  0  0  0  0  0  0  0  0  0
  126.8134  143.2523  147.5030 O   0  0  0  0  0  0  0  0  0  0  0  0
  127.3961  142.3459  146.6987 N   0  0  0  0  0  0  0  0  0  0  0  0
  126.8723  141.5728  145.8447 C   0  0  0  0  0  0  0  0  0  0  0  0
  127.7118  140.6920  145.0530 C   0  0  0  0  0  0  0  0  0  0  0  0
  129.0825  140.9605  144.9514 C   0  0  0  0  0  0  0  0  0  0  0  0
  129.8471  140.1070  144.1945 C   0  0  0  0  0  0  0  0  0  0  0  0
  129.2888  139.0239  143.5564 C   0  0  0  0  0  0  0  0  0  0  0  0
  130.0531  138.1491  142.7847 O   0  0  0  0  0  0  0  0  0  0  0  0
  127.9358  138.7359  143.6405 C   0  0  0  0  0  0  0  0  0  0  0  0
  127.3618  137.5771  142.9529 C   0  0  0  0  0  0  0  0  0  0  0  0
  128.1113  136.6323  142.6021 O   0  0  0  0  0  0  0  0  0  0  0  0
  126.0246  137.5128  142.6895 O   0  0  0  0  0  0  0  0  0  0  0  0
  127.1629  139.5859  144.3967 C   0  0  0  0  0  0  0  0  0  0  0  0
  1  2  1  0
  2  3  1  0
  2  4  1  0
  2  5  1  0
  5  6  1  0
  6  7  2  3
  7  8  1  0
  8  9  2  0
  9 10  1  0
 10 11  2  0
 11 12  1  0
 11 13  1  0
 13 14  1  0
 14 15  2  0
 14 16  1  0
 13 17  2  0
 17  8  1  0
M  END
$$$$
