
     RDKit          3D

 27 29  0  0  0  0  0  0  0  0999 V2000
  153.8917  156.4522  144.6526 C   0  0  0  0  0  0  0  0  0  0  0  0
  152.6987  155.6425  144.2942 C   0  0  0  0  0  0  0  0  0  0  0  0
  152.8118  154.3235  144.0974 C   0  0  0  0  0  0  0  0  0  0  0  0
  151.8547  153.4297  144.6912 C   0  0  0  0  0  0  0  0  0  0  0  0
  152.1065  152.3406  145.3835 C   0  0  0  0  0  0  0  0  0  0  0  0
  153.3771  151.6548  145.2254 C   0  0  0  0  0  0  0  0  0  0  0  0
  154.6181  152.4566  145.3773 C   0  0  0  0  0  0  0  0  0  0  0  0
  155.6492  152.2178  146.1088 C   0  0  0  0  0  0  0  0  0  0  0  0
  155.3150  151.0799  147.4917 Cl  0  0  0  0  0  0  0  0  0  0  0  0
  157.0216  152.6306  145.9383 C   0  0  0  0  0  0  0  0  0  0  0  0
  158.1734  151.2662  145.9412 Cl  0  0  0  0  0  0  0  0  0  0  0  0
  153.4482  150.3298  144.9320 C   0  0  0  0  0  0  0  0  0  0  0  0
  153.4664  148.9274  144.6206 C   0  0  0  0  0  0  0  0  0  0  0  0
  153.8281  147.6656  144.7476 N   0  0  0  0  0  0  0  0  0  0  0  0
  154.3537  146.9210  143.6133 C   0  0  0  0  0  0  0  0  0  0  0  0
  152.4858  149.8095  143.9276 C   0  0  0  0  0  0  0  0  0  0  0  0
  151.2000  149.5735  144.1989 N   0  0  0  0  0  0  0  0  0  0  0  0
  150.0838  150.0106  144.3728 C   0  0  0  0  0  0  0  0  0  0  0  0
  149.7215  151.4818  144.2967 C   0  0  0  0  0  0  0  0  0  0  0  0
  149.7068  152.0021  145.6856 C   0  0  0  0  0  0  0  0  0  0  0  0
  149.4811  150.8990  146.7368 C   0  0  0  0  0  0  0  0  0  0  0  0
  150.8311  150.5781  146.5313 O   0  0  0  0  0  0  0  0  0  0  0  0
  151.0404  151.9016  146.3358 C   0  0  0  0  0  0  0  0  0  0  0  0
  151.1212  152.5762  147.6292 N   0  0  0  0  0  0  0  0  0  0  0  0
  150.1202  153.5930  147.7740 C   0  0  0  0  0  0  0  0  0  0  0  0
  149.3163  153.6794  146.4775 C   0  0  0  0  0  0  0  0  0  0  0  0
  148.8653  154.9352  146.1949 O   0  0  0  0  0  0  0  0  0  0  0  0
  1  2  1  0
  2  3  2  3
  3  4  1  0
  4  5  2  3
  5  6  1  0
  6  7  1  0
  7  8  2  3
  8  9  1  0
  8 10  1  0
 10 11  1  0
  6 12  2  0
 12 13  1  0
 13 14  2  3
 14 15  1  0
 13 16  1  0
 16 17  1  0
 17 18  2  0
 18 19  1  0
 19 20  1  0
 20 21  1  0
 21 22  1  0
 22 23  1  0
 23 24  1  0
 24 25  1  0
 25 26  1  0
 26 27  1  0
 23  5  1  0
 16 12  1  0
 23 20  1  0
M  END
$$$$
