
     RDKit          3D

 16 17  0  0  0  0  0  0  0  0999 V2000
  127.0523  142.0835  143.8115 C   0  0  0  0  0  0  0  0  0  0  0  0
  127.8205  141.2039  143.3618 C   0  0  0  0  0  0  0  0  0  0  0  0
  128.7021  140.2146  142.8611 C   0  0  0  0  0  0  0  0  0  0  0  0
  129.2134  139.3653  144.0807 C   0  0  0  0  0  0  0  0  0  0  0  0
  128.3735  138.3204  144.2854 N   0  0  0  0  0  0  0  0  0  0  0  0
  127.5251  137.2649  144.4920 C   0  0  0  0  0  0  0  0  0  0  0  0
  127.2115  136.1885  143.7030 C   0  0  0  0  0  0  0  0  0  0  0  0
  126.2470  135.2464  144.0877 C   0  0  0  0  0  0  0  0  0  0  0  0
  125.5999  135.3693  145.2430 N   0  0  0  0  0  0  0  0  0  0  0  0
  125.8603  136.3965  146.0588 C   0  0  0  0  0  0  0  0  0  0  0  0
  125.2111  136.4916  147.3018 C   0  0  0  0  0  0  0  0  0  0  0  0
  125.4893  137.5015  148.1922 C   0  0  0  0  0  0  0  0  0  0  0  0
  124.6795  137.5788  149.7664 Cl  0  0  0  0  0  0  0  0  0  0  0  0
  126.4245  138.4155  147.8268 C   0  0  0  0  0  0  0  0  0  0  0  0
  127.0879  138.3463  146.5843 C   0  0  0  0  0  0  0  0  0  0  0  0
  126.7985  137.3367  145.7117 C   0  0  0  0  0  0  0  0  0  0  0  0
  1  2  3  0
  2  3  1  0
  3  4  1  0
  4  5  1  0
  5  6  1  0
  6  7  2  0
  7  8  1  0
  8  9  2  0
  9 10  1  0
 10 11  2  0
 11 12  1  0
 12 13  1  0
 12 14  2  0
 14 15  1  0
 15 16  2  0
 16  6  1  0
 16 10  1  0
M  END
$$$$
