
     RDKit          3D

 22 24  0  0  0  0  0  0  0  0999 V2000
    1.6190   26.0930   -5.8270 C   0  0  0  0  0  0  0  0  0  0  0  0
    1.8843   27.0255   -6.9723 C   0  0  0  0  0  0  0  0  0  0  0  0
    3.5128   26.6852   -7.6680 Cl  0  0  0  0  0  0  0  0  0  0  0  0
    0.9299   26.8708   -8.0778 C   0  0  0  0  0  0  0  0  0  0  0  0
    0.5694   25.6744   -8.7818 N   0  0  0  0  0  0  0  0  0  0  0  0
    0.4283   28.0582   -8.3396 C   0  0  0  0  0  0  0  0  0  0  0  0
    1.0146   29.0346   -7.4386 C   0  0  0  0  0  0  0  0  0  0  0  0
    1.8694   28.4352   -6.6342 C   0  0  0  0  0  0  0  0  0  0  0  0
    2.6396   29.1547   -5.5924 C   0  0  0  0  0  0  0  0  0  0  0  0
    3.9038   28.8164   -5.3379 N   0  0  0  0  0  0  0  0  0  0  0  0
    4.6891   29.4103   -4.4096 C   0  0  0  0  0  0  0  0  0  0  0  0
    6.0238   28.9980   -4.2011 N   0  0  0  0  0  0  0  0  0  0  0  0
    6.6177   28.0263   -5.0929 C   0  0  0  0  0  0  0  0  0  0  0  0
    7.4795   27.0171   -4.3528 C   0  0  0  0  0  0  0  0  0  0  0  0
    8.6320   27.7100   -3.9366 O   0  0  0  0  0  0  0  0  0  0  0  0
    4.1540   30.4303   -3.6773 C   0  0  0  0  0  0  0  0  0  0  0  0
    4.8436   31.1084   -2.7120 C   0  0  0  0  0  0  0  0  0  0  0  0
    4.2960   32.1582   -1.9567 C   0  0  0  0  0  0  0  0  0  0  0  0
    2.9896   32.5034   -2.2239 C   0  0  0  0  0  0  0  0  0  0  0  0
    2.2690   31.8327   -3.1964 C   0  0  0  0  0  0  0  0  0  0  0  0
    2.8327   30.7960   -3.9317 C   0  0  0  0  0  0  0  0  0  0  0  0
    2.1243   30.1546   -4.8704 N   0  0  0  0  0  0  0  0  0  0  0  0
  1  2  1  0
  2  3  1  0
  2  4  1  0
  4  5  1  0
  4  6  2  0
  6  7  1  0
  7  8  2  0
  8  9  1  0
  9 10  2  0
 10 11  1  0
 11 12  1  0
 12 13  1  0
 13 14  1  0
 14 15  1  0
 11 16  2  0
 16 17  1  0
 17 18  2  0
 18 19  1  0
 19 20  2  0
 20 21  1  0
 21 22  2  0
  8  2  1  0
 22  9  1  0
 21 16  1  0
M  END
$$$$
