
     RDKit          3D

 27 29  0  0  0  0  0  0  0  0999 V2000
  157.8982  151.6524  145.2910 C   0  0  0  0  0  0  0  0  0  0  0  0
  156.6126  152.0544  145.9200 C   0  0  0  0  0  0  0  0  0  0  0  0
  156.2543  153.3879  146.0033 C   0  0  0  0  0  0  0  0  0  0  0  0
  155.0433  153.7381  146.5954 C   0  0  0  0  0  0  0  0  0  0  0  0
  154.1905  152.7935  147.1012 C   0  0  0  0  0  0  0  0  0  0  0  0
  152.9177  153.2512  147.7168 C   0  0  0  0  0  0  0  0  0  0  0  0
  151.7700  152.4746  147.6042 C   0  0  0  0  0  0  0  0  0  0  0  0
  150.6310  153.4212  148.4514 S   0  0  0  0  0  0  0  0  0  0  0  0
  151.6503  154.7196  148.8914 C   0  0  0  0  0  0  0  0  0  0  0  0
  151.3030  155.8906  149.6389 N   0  0  0  0  0  0  0  0  0  0  0  0
  150.6206  155.7785  150.8570 C   0  0  0  0  0  0  0  0  0  0  0  0
  150.1873  154.6713  151.3135 O   0  0  0  0  0  0  0  0  0  0  0  0
  150.3963  157.0233  151.6464 C   0  0  0  0  0  0  0  0  0  0  0  0
  151.4837  156.8788  153.0666 S   0  0  0  0  0  6  0  0  0  0  0  0
  150.8261  156.1610  154.1921 O   0  0  0  0  0  0  0  0  0  0  0  0
  151.8035  158.2660  153.5449 O   0  0  0  0  0  0  0  0  0  0  0  0
  152.9851  156.1340  152.5553 C   0  0  0  0  0  0  0  0  0  0  0  0
  154.0165  156.8538  152.0009 C   0  0  0  0  0  0  0  0  0  0  0  0
  155.2007  156.2630  151.5893 C   0  0  0  0  0  0  0  0  0  0  0  0
  155.3758  154.9040  151.7303 C   0  0  0  0  0  0  0  0  0  0  0  0
  156.5156  154.2676  151.3430 F   0  0  0  0  0  0  0  0  0  0  0  0
  154.3287  154.1752  152.2933 C   0  0  0  0  0  0  0  0  0  0  0  0
  153.1623  154.7538  152.6992 C   0  0  0  0  0  0  0  0  0  0  0  0
  152.8011  154.3599  148.3684 N   0  0  0  0  0  0  0  0  0  0  0  0
  154.5306  151.4709  147.0266 C   0  0  0  0  0  0  0  0  0  0  0  0
  155.7447  151.1177  146.4332 C   0  0  0  0  0  0  0  0  0  0  0  0
  156.0717  149.6754  146.3777 C   0  0  0  0  0  0  0  0  0  0  0  0
  1  2  1  0
  2  3  2  0
  3  4  1  0
  4  5  2  0
  5  6  1  0
  6  7  2  0
  7  8  1  0
  8  9  1  0
  9 10  1  0
 10 11  1  0
 11 12  2  0
 11 13  1  0
 13 14  1  0
 14 15  2  0
 14 16  2  0
 14 17  1  0
 17 18  2  0
 18 19  1  0
 19 20  2  0
 20 21  1  0
 20 22  1  0
 22 23  2  0
  9 24  2  0
  5 25  1  0
 25 26  2  0
 26 27  1  0
 26  2  1  0
 24  6  1  0
 23 17  1  0
M  END
$$$$
