
     RDKit          3D

 24 26  0  0  0  0  0  0  0  0999 V2000
  115.4394  128.7962  176.1265 C   0  0  0  0  0  0  0  0  0  0  0  0
  115.0591  127.8898  175.1075 O   0  0  0  0  0  0  0  0  0  0  0  0
  114.6461  128.4055  173.8905 C   0  0  0  0  0  0  0  0  0  0  0  0
  114.5092  129.7647  173.7831 C   0  0  0  0  0  0  0  0  0  0  0  0
  114.1044  130.3629  172.6136 C   0  0  0  0  0  0  0  0  0  0  0  0
  113.9355  131.7048  172.3976 O   0  0  0  0  0  0  0  0  0  0  0  0
  113.8422  129.5241  171.5500 C   0  0  0  0  0  0  0  0  0  0  0  0
  113.4308  130.0009  170.3285 C   0  0  0  0  0  0  0  0  0  0  0  0
  113.2797  131.2341  170.1439 O   0  0  0  0  0  0  0  0  0  0  0  0
  113.1920  129.0927  169.3241 C   0  0  0  0  0  0  0  0  0  0  0  0
  112.7803  129.6236  168.1151 O   0  0  0  0  0  0  0  0  0  0  0  0
  113.3253  127.7356  169.4204 C   0  0  0  0  0  0  0  0  0  0  0  0
  113.0936  126.7275  168.4143 C   0  0  0  0  0  0  0  0  0  0  0  0
  113.2415  125.4058  168.7779 C   0  0  0  0  0  0  0  0  0  0  0  0
  113.0549  124.3474  167.9326 C   0  0  0  0  0  0  0  0  0  0  0  0
  112.6981  124.5630  166.6335 C   0  0  0  0  0  0  0  0  0  0  0  0
  112.5017  123.5145  165.7531 O   0  0  0  0  0  0  0  0  0  0  0  0
  112.5327  125.8617  166.2013 C   0  0  0  0  0  0  0  0  0  0  0  0
  112.1706  126.1423  164.8920 O   0  0  0  0  0  0  0  0  0  0  0  0
  112.0116  127.4898  164.4928 C   0  0  0  0  0  0  0  0  0  0  0  0
  112.7356  126.8809  167.1021 C   0  0  0  0  0  0  0  0  0  0  0  0
  113.7200  127.3505  170.6101 O   0  0  0  0  0  0  0  0  0  0  0  0
  113.9612  128.1575  171.5974 C   0  0  0  0  0  0  0  0  0  0  0  0
  114.3742  127.5752  172.7976 C   0  0  0  0  0  0  0  0  0  0  0  0
  1  2  1  0
  2  3  1  0
  3  4  2  0
  4  5  1  0
  5  6  1  0
  5  7  2  0
  7  8  1  0
  8  9  2  0
  8 10  1  0
 10 11  1  0
 10 12  2  0
 12 13  1  0
 13 14  2  0
 14 15  1  0
 15 16  2  0
 16 17  1  0
 16 18  1  0
 18 19  1  0
 19 20  1  0
 18 21  2  0
 12 22  1  0
 22 23  1  0
 23 24  2  0
 24  3  1  0
 23  7  1  0
 21 13  1  0
M  END
$$$$
