
     RDKit          3D

 25 28  0  0  0  0  0  0  0  0999 V2000
  151.0634  146.6402  137.3938 C   0  0  0  0  0  0  0  0  0  0  0  0
  151.7747  146.8916  138.6984 C   0  0  2  0  0  0  0  0  0  0  0  0
  151.5735  145.8412  139.5569 O   0  0  0  0  0  0  0  0  0  0  0  0
  151.4583  148.2354  139.2982 C   0  0  0  0  0  0  0  0  0  0  0  0
  152.1902  148.5261  140.4986 N   0  0  0  0  0  0  0  0  0  0  0  0
  151.8950  147.6898  141.6192 C   0  0  0  0  0  0  0  0  0  0  0  0
  150.5061  148.0962  142.1355 C   0  0  0  0  0  0  0  0  0  0  0  0
  150.7016  149.0936  143.2347 C   0  0  0  0  0  0  0  0  0  0  0  0
  152.1560  149.3993  143.1509 C   0  0  1  0  0  0  0  0  0  0  0  0
  152.8002  149.8416  144.4129 C   0  0  2  0  0  0  0  0  0  0  0  0
  152.1904  151.1958  144.7759 C   0  0  0  0  0  0  0  0  0  0  0  0
  153.0988  151.9641  145.6716 C   0  0  0  0  0  0  0  0  0  0  0  0
  154.3201  151.6048  146.0047 C   0  0  0  0  0  0  0  0  0  0  0  0
  155.0774  152.5161  146.9212 C   0  0  0  0  0  0  0  0  0  0  0  0
  156.4657  152.6734  146.3226 C   0  0  1  0  0  0  0  0  0  0  0  0
  157.2678  153.4796  147.1353 O   0  0  0  0  0  0  0  0  0  0  0  0
  157.0828  151.2931  146.3148 C   0  0  0  0  0  0  0  0  0  0  0  0
  156.3911  150.3626  145.3631 C   0  0  0  0  0  0  0  0  0  0  0  0
  154.9112  150.3436  145.4877 C   0  0  1  0  0  0  0  0  0  0  0  0
  154.5317  149.2596  146.4779 C   0  0  0  0  0  0  0  0  0  0  0  0
  154.2542  150.0967  144.1204 C   0  0  1  0  0  0  0  0  0  0  0  0
  154.9435  149.0961  143.3009 C   0  0  0  0  0  0  0  0  0  0  0  0
  154.1749  147.9859  142.7026 C   0  0  0  0  0  0  0  0  0  0  0  0
  152.7156  148.0032  142.8553 C   0  0  2  0  0  0  0  0  0  0  0  0
  152.2555  147.0099  143.9147 C   0  0  0  0  0  0  0  0  0  0  0  0
  2  1  1  6
  2  3  1  0
  2  4  1  0
  4  5  1  0
  5  6  1  0
  6  7  1  0
  7  8  1  0
  9  8  1  1
  9 10  1  0
 10 11  1  6
 11 12  1  0
 12 13  2  0
 13 14  1  0
 14 15  1  0
 15 16  1  1
 15 17  1  0
 17 18  1  0
 18 19  1  0
 19 20  1  1
 19 21  1  0
 21 22  1  1
 22 23  1  0
 23 24  1  0
 24 25  1  1
 24  6  1  0
 24  9  1  0
 21 10  1  0
 19 13  1  0
M  END
$$$$
