
     RDKit          3D

 26 28  0  0  0  0  0  0  0  0999 V2000
  128.8364  144.7558  153.8469 C   0  0  0  0  0  0  0  0  0  0  0  0
  128.5869  145.2938  152.5690 O   0  0  0  0  0  0  0  0  0  0  0  0
  128.2972  144.5015  151.4640 C   0  0  0  0  0  0  0  0  0  0  0  0
  128.6588  143.1777  151.3648 C   0  0  0  0  0  0  0  0  0  0  0  0
  128.3626  142.3968  150.2560 C   0  0  0  0  0  0  0  0  0  0  0  0
  127.6787  142.9242  149.1828 C   0  0  0  0  0  0  0  0  0  0  0  0
  127.3192  142.1992  147.9564 C   0  0  0  0  0  0  0  0  0  0  0  0
  127.0208  140.8144  148.1079 N   0  0  0  0  0  0  0  0  0  0  0  0
  128.3184  140.1084  148.0219 C   0  0  0  0  0  0  0  0  0  0  0  0
  128.1893  138.8135  147.2532 C   0  0  0  0  0  0  0  0  0  0  0  0
  126.9599  138.1364  147.5160 N   0  0  0  0  0  0  0  0  0  0  0  0
  126.8802  136.9518  146.6940 C   0  0  0  0  0  0  0  0  0  0  0  0
  125.5198  136.3529  146.7367 C   0  0  0  0  0  0  0  0  0  0  0  0
  125.1084  135.6609  147.8485 C   0  0  0  0  0  0  0  0  0  0  0  0
  123.8484  135.1137  147.9386 C   0  0  0  0  0  0  0  0  0  0  0  0
  123.0067  135.2906  146.8555 C   0  0  0  0  0  0  0  0  0  0  0  0
  123.3904  135.9802  145.7245 C   0  0  0  0  0  0  0  0  0  0  0  0
  122.5381  136.1469  144.6562 O   0  0  0  0  0  0  0  0  0  0  0  0
  124.6531  136.5098  145.6721 C   0  0  0  0  0  0  0  0  0  0  0  0
  125.7949  138.9511  147.2542 C   0  0  0  0  0  0  0  0  0  0  0  0
  126.2770  140.3548  146.9397 C   0  0  0  0  0  0  0  0  0  0  0  0
  127.3160  144.2651  149.2891 C   0  0  0  0  0  0  0  0  0  0  0  0
  126.4366  144.9744  147.9219 Cl  0  0  0  0  0  0  0  0  0  0  0  0
  127.6106  145.0399  150.3917 C   0  0  0  0  0  0  0  0  0  0  0  0
  127.2186  146.3813  150.4407 O   0  0  0  0  0  0  0  0  0  0  0  0
  128.0138  147.3958  149.8582 C   0  0  0  0  0  0  0  0  0  0  0  0
  1  2  1  0
  2  3  1  0
  3  4  2  0
  4  5  1  0
  5  6  2  0
  6  7  1  0
  7  8  1  0
  8  9  1  0
  9 10  1  0
 10 11  1  0
 11 12  1  0
 12 13  1  0
 13 14  2  0
 14 15  1  0
 15 16  2  0
 16 17  1  0
 17 18  1  0
 17 19  2  0
 11 20  1  0
 20 21  1  0
  6 22  1  0
 22 23  1  0
 22 24  2  0
 24 25  1  0
 25 26  1  0
 24  3  1  0
 21  8  1  0
 19 13  1  0
M  END
$$$$
