
     RDKit          3D

 26 28  0  0  0  0  0  0  0  0999 V2000
  127.0926  144.7937  147.7446 C   0  0  0  0  0  0  0  0  0  0  0  0
  126.9130  143.5143  148.3065 O   0  0  0  0  0  0  0  0  0  0  0  0
  127.1671  142.3426  147.6029 C   0  0  0  0  0  0  0  0  0  0  0  0
  126.9474  142.2071  146.2515 C   0  0  0  0  0  0  0  0  0  0  0  0
  127.2062  141.0316  145.5601 C   0  0  0  0  0  0  0  0  0  0  0  0
  127.7054  139.9247  146.2107 C   0  0  0  0  0  0  0  0  0  0  0  0
  128.0076  138.6289  145.5874 C   0  0  0  0  0  0  0  0  0  0  0  0
  127.7959  138.5418  144.1812 N   0  0  0  0  0  0  0  0  0  0  0  0
  127.5258  137.1144  143.8997 C   0  0  0  0  0  0  0  0  0  0  0  0
  128.1784  136.6761  142.6088 C   0  0  0  0  0  0  0  0  0  0  0  0
  128.1316  137.6830  141.5975 N   0  0  0  0  0  0  0  0  0  0  0  0
  128.8354  137.2179  140.4255 C   0  0  0  0  0  0  0  0  0  0  0  0
  128.7338  138.1948  139.3089 C   0  0  0  0  0  0  0  0  0  0  0  0
  129.8195  138.9616  138.9659 C   0  0  0  0  0  0  0  0  0  0  0  0
  129.7749  139.8584  137.9226 C   0  0  0  0  0  0  0  0  0  0  0  0
  128.5831  139.9567  137.2278 C   0  0  0  0  0  0  0  0  0  0  0  0
  127.4749  139.2007  137.5479 C   0  0  0  0  0  0  0  0  0  0  0  0
  126.2970  139.3117  136.8440 O   0  0  0  0  0  0  0  0  0  0  0  0
  127.5582  138.3193  138.5938 C   0  0  0  0  0  0  0  0  0  0  0  0
  128.7202  138.9356  142.0146 C   0  0  0  0  0  0  0  0  0  0  0  0
  129.0511  138.8189  143.4906 C   0  0  0  0  0  0  0  0  0  0  0  0
  127.9250  140.0680  147.5789 C   0  0  0  0  0  0  0  0  0  0  0  0
  128.5647  138.6590  148.4458 Cl  0  0  0  0  0  0  0  0  0  0  0  0
  127.6678  141.2368  148.2647 C   0  0  0  0  0  0  0  0  0  0  0  0
  127.9100  141.3203  149.6393 O   0  0  0  0  0  0  0  0  0  0  0  0
  127.4632  140.3091  150.5219 C   0  0  0  0  0  0  0  0  0  0  0  0
  1  2  1  0
  2  3  1  0
  3  4  2  0
  4  5  1  0
  5  6  2  0
  6  7  1  0
  7  8  1  0
  8  9  1  0
  9 10  1  0
 10 11  1  0
 11 12  1  0
 12 13  1  0
 13 14  2  0
 14 15  1  0
 15 16  2  0
 16 17  1  0
 17 18  1  0
 17 19  2  0
 11 20  1  0
 20 21  1  0
  6 22  1  0
 22 23  1  0
 22 24  2  0
 24 25  1  0
 25 26  1  0
 24  3  1  0
 21  8  1  0
 19 13  1  0
M  END
$$$$
