
     RDKit          3D

 19 20  0  0  0  0  0  0  0  0999 V2000
   41.8275   47.3285   28.8277 C   0  0  0  0  0  0  0  0  0  0  0  0
   41.6023   47.1171   27.4304 N   0  0  0  0  0  0  0  0  0  0  0  0
   41.5026   48.2351   26.5414 C   0  0  0  0  0  0  0  0  0  0  0  0
   41.4356   49.5899   26.3891 C   0  0  0  0  0  0  0  0  0  0  0  0
   41.4020   48.7623   25.1857 C   0  0  0  0  0  0  0  0  0  0  0  0
   41.3386   48.5401   23.8991 C   0  0  0  0  0  0  0  0  0  0  0  0
   40.0932   48.7044   23.1100 C   0  0  0  0  0  0  0  0  0  0  0  0
   40.3089   48.4639   21.7062 N   0  0  0  0  0  0  0  0  0  0  0  0
   40.5019   47.2467   21.3253 C   0  0  0  0  0  0  0  0  0  0  0  0
   40.5822   46.2814   22.4735 C   0  0  0  0  0  0  0  0  0  0  0  0
   41.6556   45.2741   22.3519 C   0  0  0  0  0  0  0  0  0  0  0  0
   41.9152   44.1700   21.7808 C   0  0  0  0  0  0  0  0  0  0  0  0
   43.0037   43.1696   21.6765 C   0  0  0  0  0  0  0  0  0  0  0  0
   44.0808   43.5551   20.8682 O   0  0  0  0  0  0  0  0  0  0  0  0
   44.4343   44.8642   20.9243 C   0  0  0  0  0  0  0  0  0  0  0  0
   43.7455   45.8487   20.0628 C   0  0  0  0  0  0  0  0  0  0  0  0
   42.5478   45.4456   19.4034 N   0  0  0  0  0  0  0  0  0  0  0  0
   41.3120   46.1224   19.2354 C   0  0  0  0  0  0  0  0  0  0  0  0
   40.6189   46.7755   20.0229 N   0  0  0  0  0  0  0  0  0  0  0  0
  1  2  1  0
  2  3  1  0
  3  4  2  0
  4  5  1  0
  5  6  2  3
  6  7  1  0
  7  8  1  0
  8  9  2  3
  9 10  1  0
 10 11  1  0
 11 12  2  0
 12 13  1  0
 13 14  1  0
 14 15  1  0
 15 16  1  0
 16 17  1  0
 17 18  1  0
 18 19  2  0
  5  3  1  0
 19  9  1  0
M  END
$$$$
