
     RDKit          3D

 19 20  0  0  0  0  0  0  0  0999 V2000
   13.1481   23.3930   15.3638 C   0  0  0  0  0  0  0  0  0  0  0  0
   14.1416   22.3758   15.5259 N   0  0  0  0  0  0  0  0  0  0  0  0
   14.3046   21.7258   16.7912 C   0  0  0  0  0  0  0  0  0  0  0  0
   13.8069   21.4797   18.0382 C   0  0  0  0  0  0  0  0  0  0  0  0
   15.0846   20.8701   17.6774 C   0  0  0  0  0  0  0  0  0  0  0  0
   16.1508   20.1409   17.8781 C   0  0  0  0  0  0  0  0  0  0  0  0
   16.0965   18.7577   18.4115 C   0  0  0  0  0  0  0  0  0  0  0  0
   17.1776   17.9457   17.9148 N   0  0  0  0  0  0  0  0  0  0  0  0
   18.3836   18.3173   18.1823 C   0  0  0  0  0  0  0  0  0  0  0  0
   18.4614   19.7326   18.6798 C   0  0  0  0  0  0  0  0  0  0  0  0
   19.5719   20.5216   18.1087 C   0  0  0  0  0  0  0  0  0  0  0  0
   20.8206   20.7108   18.2409 C   0  0  0  0  0  0  0  0  0  0  0  0
   21.9191   21.5155   17.6560 C   0  0  0  0  0  0  0  0  0  0  0  0
   22.3714   21.0723   16.4066 O   0  0  0  0  0  0  0  0  0  0  0  0
   21.4238   20.5946   15.5607 C   0  0  0  0  0  0  0  0  0  0  0  0
   21.0097   19.1778   15.6461 C   0  0  0  0  0  0  0  0  0  0  0  0
   21.4115   18.4260   16.7884 N   0  0  0  0  0  0  0  0  0  0  0  0
   20.6857   17.5136   17.5971 C   0  0  0  0  0  0  0  0  0  0  0  0
   19.5460   17.5633   18.0724 N   0  0  0  0  0  0  0  0  0  0  0  0
  1  2  1  0
  2  3  1  0
  3  4  2  0
  4  5  1  0
  5  6  2  3
  6  7  1  0
  7  8  1  0
  8  9  2  3
  9 10  1  0
 10 11  1  0
 11 12  2  0
 12 13  1  0
 13 14  1  0
 14 15  1  0
 15 16  1  0
 16 17  1  0
 17 18  1  0
 18 19  2  0
  5  3  1  0
 19  9  1  0
M  END
$$$$
