
     RDKit          3D

 22 22  0  0  0  0  0  0  0  0999 V2000
   35.4727   28.1378    8.9526 C   0  0  0  0  0  0  0  0  0  0  0  0
   36.3065   27.2420    9.4504 C   0  0  0  0  0  0  0  0  0  0  0  0
   37.1200   26.3827   10.0205 C   0  0  0  0  0  0  0  0  0  0  0  0
   37.9231   26.8929   11.0915 C   0  0  0  0  0  0  0  0  0  0  0  0
   37.7717   26.4521   12.3521 C   0  0  0  0  0  0  0  0  0  0  0  0
   38.2761   27.4328   13.3074 C   0  0  0  0  0  0  0  0  0  0  0  0
   38.5572   26.9450   14.6816 C   0  0  0  0  0  0  0  0  0  0  0  0
   39.4027   25.8015   14.7895 N   0  0  0  0  0  0  0  0  0  0  0  0
   40.4870   25.9127   15.7136 C   0  0  0  0  0  0  0  0  0  0  0  0
   40.0635   26.8912   16.8042 C   0  0  0  0  0  0  0  0  0  0  0  0
   39.5091   26.2338   17.8935 O   0  0  0  0  0  0  0  0  0  0  0  0
   38.5953   24.7183   15.1719 N   0  0  0  0  0  0  0  0  0  0  0  0
   37.6326   23.9463   14.4359 C   0  0  0  0  0  0  0  0  0  0  0  0
   37.1996   22.7551   15.0327 N   0  0  0  0  0  0  0  0  0  0  0  0
   36.0151   22.0498   14.6508 C   0  0  0  0  0  0  0  0  0  0  0  0
   35.9744   21.5745   13.2560 C   0  0  0  0  0  0  0  0  0  0  0  0
   36.1778   22.3695   12.1965 C   0  0  0  0  0  0  0  0  0  0  0  0
   36.0432   21.9270   10.7988 C   0  0  0  0  0  0  0  0  0  0  0  0
   35.5721   20.5241   10.6174 C   0  0  0  0  0  0  0  0  0  0  0  0
   35.1134   23.0997    9.7994 Cl  0  0  0  0  0  0  0  0  0  0  0  0
   37.0594   24.1337   13.2844 N   0  0  0  0  0  0  0  0  0  0  0  0
   37.1532   25.1459   12.3234 N   0  0  0  0  0  0  0  0  0  0  0  0
  1  2  2  0
  2  3  2  0
  3  4  1  0
  4  5  2  3
  5  6  1  0
  6  7  1  0
  7  8  1  0
  8  9  1  0
  9 10  1  0
 10 11  1  0
  8 12  1  0
 12 13  1  0
 13 14  1  0
 14 15  1  0
 15 16  1  0
 16 17  2  3
 17 18  1  0
 18 19  1  0
 18 20  1  0
 13 21  2  0
 21 22  1  0
 22  5  1  0
M  END
$$$$
