
     RDKit          3D

 22 22  0  0  0  0  0  0  0  0999 V2000
   -1.5709   29.5580   13.7338 C   0  0  0  0  0  0  0  0  0  0  0  0
   -2.0542   28.7126   12.8409 C   0  0  0  0  0  0  0  0  0  0  0  0
   -2.5798   27.8379   12.0139 C   0  0  0  0  0  0  0  0  0  0  0  0
   -3.5809   28.3402   11.1207 C   0  0  0  0  0  0  0  0  0  0  0  0
   -4.1332   27.5590   10.1767 C   0  0  0  0  0  0  0  0  0  0  0  0
   -4.9382   28.3523    9.2541 C   0  0  0  0  0  0  0  0  0  0  0  0
   -5.9236   27.6157    8.4224 C   0  0  0  0  0  0  0  0  0  0  0  0
   -6.8283   26.7600    9.1175 N   0  0  0  0  0  0  0  0  0  0  0  0
   -8.2105   26.9154    8.7893 C   0  0  0  0  0  0  0  0  0  0  0  0
   -8.3122   27.0358    7.2722 C   0  0  0  0  0  0  0  0  0  0  0  0
   -8.4334   25.7923    6.6678 O   0  0  0  0  0  0  0  0  0  0  0  0
   -6.4472   25.4366    8.8439 N   0  0  0  0  0  0  0  0  0  0  0  0
   -5.3366   24.6535    9.3102 C   0  0  0  0  0  0  0  0  0  0  0  0
   -5.3961   23.2759    9.0626 N   0  0  0  0  0  0  0  0  0  0  0  0
   -4.4869   22.3203    9.6164 C   0  0  0  0  0  0  0  0  0  0  0  0
   -4.3389   22.3523   11.0826 C   0  0  0  0  0  0  0  0  0  0  0  0
   -3.8272   23.3940   11.7528 C   0  0  0  0  0  0  0  0  0  0  0  0
   -3.3978   23.3356   13.1598 C   0  0  0  0  0  0  0  0  0  0  0  0
   -2.1439   22.5693   13.4118 C   0  0  0  0  0  0  0  0  0  0  0  0
   -3.3791   24.9598   13.9344 Cl  0  0  0  0  0  0  0  0  0  0  0  0
   -4.2457   24.9738    9.9403 N   0  0  0  0  0  0  0  0  0  0  0  0
   -3.7318   26.1891   10.4049 N   0  0  0  0  0  0  0  0  0  0  0  0
  1  2  2  0
  2  3  2  0
  3  4  1  0
  4  5  2  3
  5  6  1  0
  6  7  1  0
  7  8  1  0
  8  9  1  0
  9 10  1  0
 10 11  1  0
  8 12  1  0
 12 13  1  0
 13 14  1  0
 14 15  1  0
 15 16  1  0
 16 17  2  3
 17 18  1  0
 18 19  1  0
 18 20  1  0
 13 21  2  0
 21 22  1  0
 22  5  1  0
M  END
$$$$
