
     RDKit          3D

 27 29  0  0  0  0  0  0  0  0999 V2000
  149.2715  157.1335  159.1845 C   0  0  0  0  0  0  0  0  0  0  0  0
  148.3623  156.3882  158.3262 N   0  0  0  0  0  0  0  0  0  0  0  0
  149.2683  155.5182  157.1192 S   0  0  0  0  0  6  0  0  0  0  0  0
  150.3420  154.7530  157.8711 O   0  0  0  0  0  0  0  0  0  0  0  0
  148.3413  154.5814  156.4307 O   0  0  0  0  0  0  0  0  0  0  0  0
  150.0047  156.6648  156.0169 C   0  0  0  0  0  0  0  0  0  0  0  0
  150.4353  157.8982  156.5134 C   0  0  0  0  0  0  0  0  0  0  0  0
  151.0171  158.8156  155.6635 C   0  0  0  0  0  0  0  0  0  0  0  0
  151.1760  158.5211  154.3255 C   0  0  0  0  0  0  0  0  0  0  0  0
  150.7531  157.2943  153.8064 C   0  0  0  0  0  0  0  0  0  0  0  0
  150.9389  157.0040  152.3495 C   0  0  0  0  0  0  0  0  0  0  0  0
  151.1610  155.6082  152.1190 N   0  0  0  0  0  0  0  0  0  0  0  0
  151.0740  155.1832  150.7623 C   0  0  0  0  0  0  0  0  0  0  0  0
  152.4343  155.3323  150.1152 C   0  0  0  0  0  0  0  0  0  0  0  0
  152.4130  154.9331  148.6620 C   0  0  0  0  0  0  0  0  0  0  0  0
  151.6127  153.7683  148.4884 N   0  0  0  0  0  0  0  0  0  0  0  0
  152.0457  152.9068  147.4114 C   0  0  0  0  0  0  0  0  0  0  0  0
  151.0813  151.7770  147.1441 C   0  0  0  0  0  0  0  0  0  0  0  0
  151.5764  151.0489  145.9625 C   0  0  0  0  0  0  0  0  0  0  0  0
  152.2901  149.8964  146.1266 C   0  0  0  0  0  0  0  0  0  0  0  0
  152.7727  149.1791  145.0559 C   0  0  0  0  0  0  0  0  0  0  0  0
  152.5067  149.6713  143.7920 C   0  0  0  0  0  0  0  0  0  0  0  0
  151.7829  150.8411  143.6072 C   0  0  0  0  0  0  0  0  0  0  0  0
  151.3194  151.5261  144.7101 C   0  0  0  0  0  0  0  0  0  0  0  0
  151.4232  152.9794  149.6633 C   0  0  0  0  0  0  0  0  0  0  0  0
  150.5522  153.7700  150.6233 C   0  0  0  0  0  0  0  0  0  0  0  0
  150.1814  156.4138  154.6837 C   0  0  0  0  0  0  0  0  0  0  0  0
  1  2  1  0
  2  3  1  0
  3  4  2  0
  3  5  2  0
  3  6  1  0
  6  7  2  0
  7  8  1  0
  8  9  2  0
  9 10  1  0
 10 11  1  0
 11 12  1  0
 12 13  1  0
 13 14  1  0
 14 15  1  0
 15 16  1  0
 16 17  1  0
 17 18  1  0
 18 19  1  0
 19 20  2  0
 20 21  1  0
 21 22  2  0
 22 23  1  0
 23 24  2  0
 16 25  1  0
 25 26  1  0
 10 27  2  0
 27  6  1  0
 26 13  1  0
 24 19  1  0
M  END
$$$$
