
     RDKit          3D

 20 21  0  0  0  0  0  0  0  0999 V2000
  165.2311  139.5767  152.4272 C   0  0  0  0  0  0  0  0  0  0  0  0
  165.8003  140.2026  153.5594 O   0  0  0  0  0  0  0  0  0  0  0  0
  167.1869  140.0963  153.8617 C   0  0  0  0  0  0  0  0  0  0  0  0
  167.8140  139.4375  153.0190 O   0  0  0  0  0  0  0  0  0  0  0  0
  167.6913  140.7386  155.0638 C   0  0  0  0  0  0  0  0  0  0  0  0
  169.0743  140.7623  155.3060 C   0  0  0  0  0  0  0  0  0  0  0  0
  169.6284  141.3385  156.3990 C   0  0  0  0  0  0  0  0  0  0  0  0
  168.8508  141.9373  157.3390 C   0  0  0  0  0  0  0  0  0  0  0  0
  169.3879  142.5569  158.4972 N   0  0  0  0  0  0  0  0  0  0  0  0
  170.8045  142.6572  158.7416 C   0  0  0  0  0  0  0  0  0  0  0  0
  171.4229  141.2826  158.8968 C   0  0  0  0  0  0  0  0  0  0  0  0
  171.0424  143.4527  160.0022 C   0  0  0  0  0  0  0  0  0  0  0  0
  172.4633  143.9953  160.0531 C   0  0  0  0  0  0  0  0  0  0  0  0
  172.5349  144.8696  161.2097 N   0  0  0  0  0  0  0  0  0  0  0  0
  167.4743  141.9302  157.1268 C   0  0  0  0  0  0  0  0  0  0  0  0
  166.6850  142.5118  158.0345 N   0  0  0  0  0  0  0  0  0  0  0  0
  165.3602  142.5531  157.9149 C   0  0  0  0  0  0  0  0  0  0  0  0
  164.7338  141.9872  156.8292 C   0  0  0  0  0  0  0  0  0  0  0  0
  165.5348  141.3689  155.8587 C   0  0  0  0  0  0  0  0  0  0  0  0
  166.9021  141.3420  156.0098 C   0  0  0  0  0  0  0  0  0  0  0  0
  1  2  1  0
  2  3  1  0
  3  4  2  0
  3  5  1  0
  5  6  2  0
  6  7  1  0
  7  8  2  0
  8  9  1  0
  9 10  1  0
 10 11  1  0
 10 12  1  0
 12 13  1  0
 13 14  1  0
  8 15  1  0
 15 16  2  0
 16 17  1  0
 17 18  2  0
 18 19  1  0
 19 20  2  0
 20  5  1  0
 20 15  1  0
M  END
$$$$
