
     RDKit          3D

 21 22  0  0  0  0  0  0  0  0999 V2000
  142.4711  141.5215  117.4998 O   0  0  0  0  0  0  0  0  0  0  0  0
  141.4883  142.1083  117.0010 C   0  0  0  0  0  0  0  0  0  0  0  0
  141.3178  142.0798  115.5966 N   0  0  0  0  0  0  0  0  0  0  0  0
  142.1012  141.3810  114.6507 C   0  0  0  0  0  0  0  0  0  0  0  0
  143.3841  140.9393  114.8463 C   0  0  0  0  0  0  0  0  0  0  0  0
  144.0647  140.2562  113.8346 C   0  0  0  0  0  0  0  0  0  0  0  0
  143.5095  139.9896  112.6118 C   0  0  0  0  0  0  0  0  0  0  0  0
  144.2586  139.2620  111.5579 C   0  0  0  0  0  0  0  0  0  0  0  0
  144.9898  140.1138  110.7361 O   0  0  0  0  0  0  0  0  0  0  0  0
  142.2222  140.4281  112.4037 C   0  0  0  0  0  0  0  0  0  0  0  0
  141.6329  140.1867  111.2092 F   0  0  0  0  0  0  0  0  0  0  0  0
  141.5508  141.1015  113.4007 C   0  0  0  0  0  0  0  0  0  0  0  0
  140.5469  142.8010  117.8440 N   0  0  0  0  0  0  0  0  0  0  0  0
  140.9263  143.0508  119.1819 C   0  0  0  0  0  0  0  0  0  0  0  0
  141.3064  144.2998  119.6234 C   0  0  0  0  0  0  0  0  0  0  0  0
  141.6580  144.4536  120.9349 C   0  0  0  0  0  0  0  0  0  0  0  0
  142.1526  146.0273  121.5573 Cl  0  0  0  0  0  0  0  0  0  0  0  0
  141.6375  143.3901  121.8092 C   0  0  0  0  0  0  0  0  0  0  0  0
  141.2587  142.1341  121.3797 C   0  0  0  0  0  0  0  0  0  0  0  0
  141.2395  140.7850  122.5166 Cl  0  0  0  0  0  0  0  0  0  0  0  0
  140.9066  141.9859  120.0609 C   0  0  0  0  0  0  0  0  0  0  0  0
  1  2  2  0
  2  3  1  0
  3  4  1  0
  4  5  2  0
  5  6  1  0
  6  7  2  0
  7  8  1  0
  8  9  1  0
  7 10  1  0
 10 11  1  0
 10 12  2  0
  2 13  1  0
 13 14  1  0
 14 15  2  0
 15 16  1  0
 16 17  1  0
 16 18  2  0
 18 19  1  0
 19 20  1  0
 19 21  2  0
 12  4  1  0
 21 14  1  0
M  END
$$$$
