
     RDKit          3D

 18 19  0  0  0  0  0  0  0  0999 V2000
  165.8879  157.2717  153.0000 Cl  0  0  0  0  0  0  0  0  0  0  0  0
  166.9424  157.9171  154.2025 C   0  0  0  0  0  0  0  0  0  0  0  0
  166.6556  157.8318  155.5133 C   0  0  0  0  0  0  0  0  0  0  0  0
  167.5964  158.4012  156.4692 C   0  0  0  0  0  0  0  0  0  0  0  0
  167.3914  158.3591  157.7500 C   0  0  0  0  0  0  0  0  0  0  0  0
  168.0260  159.2026  158.7025 N   0  0  0  0  0  0  0  0  0  0  0  0
  167.9134  158.8416  160.0740 C   0  0  0  0  0  0  0  0  0  0  0  0
  168.4425  159.9538  161.3351 Cl  0  0  0  0  0  0  0  0  0  0  0  0
  167.4142  157.6814  160.3361 N   0  0  0  0  0  0  0  0  0  0  0  0
  167.8024  157.0616  161.5794 C   0  0  0  0  0  0  0  0  0  0  0  0
  166.9685  156.1649  162.2002 C   0  0  0  0  0  0  0  0  0  0  0  0
  167.3281  155.5605  163.3965 C   0  0  0  0  0  0  0  0  0  0  0  0
  168.5456  155.8695  163.9679 C   0  0  0  0  0  0  0  0  0  0  0  0
  169.3764  156.7682  163.3417 C   0  0  0  0  0  0  0  0  0  0  0  0
  169.0122  157.3568  162.1647 C   0  0  0  0  0  0  0  0  0  0  0  0
  168.7973  159.0322  155.9508 C   0  0  0  0  0  0  0  0  0  0  0  0
  168.9663  159.0781  154.6420 C   0  0  0  0  0  0  0  0  0  0  0  0
  168.1396  158.5554  153.8516 N   0  0  0  0  0  3  0  0  0  0  0  0
  1  2  1  0
  2  3  2  0
  3  4  1  0
  4  5  2  3
  5  6  1  0
  6  7  1  0
  7  8  1  0
  7  9  2  3
  9 10  1  0
 10 11  2  0
 11 12  1  0
 12 13  2  0
 13 14  1  0
 14 15  2  0
  4 16  1  0
 16 17  2  0
 17 18  2  0
 18  2  1  0
 15 10  1  0
M  CHG  1  18   1
M  RAD  1  18   2
M  END
$$$$
