
     RDKit          3D

 28 30  0  0  0  0  0  0  0  0999 V2000
   11.0641   29.9719   -8.5343 C   0  0  0  0  0  0  0  0  0  0  0  0
    9.6603   30.1441   -8.5884 O   0  0  0  0  0  0  0  0  0  0  0  0
    8.9487   30.1970   -7.3894 C   0  0  0  0  0  0  0  0  0  0  0  0
    7.5849   30.4004   -7.3797 C   0  0  0  0  0  0  0  0  0  0  0  0
    6.8657   30.4553   -6.2041 C   0  0  0  0  0  0  0  0  0  0  0  0
    7.4771   30.3091   -4.9753 C   0  0  0  0  0  0  0  0  0  0  0  0
    6.7566   30.3610   -3.7499 N   0  0  0  0  0  0  0  0  0  0  0  0
    6.9143   29.6161   -2.6422 C   0  0  0  0  0  0  0  0  0  0  0  0
    6.0093   29.9897   -1.6783 C   0  0  0  0  0  0  0  0  0  0  0  0
    5.2913   30.9845   -2.2243 N   0  0  0  0  0  0  0  0  0  0  0  0
    5.7373   31.2109   -3.4695 C   0  0  0  0  0  0  0  0  0  0  0  0
    5.1362   32.4218   -4.6184 S   0  0  0  0  0  0  0  0  0  0  0  0
    3.3349   32.5123   -4.6697 C   0  0  0  0  0  0  0  0  0  0  0  0
    2.6792   31.4277   -5.3935 C   0  0  0  0  0  0  0  0  0  0  0  0
    1.4057   31.4624   -5.4314 O   0  0  0  0  0  0  0  0  0  0  0  0
    3.3088   30.3450   -6.0532 N   0  0  0  0  0  0  0  0  0  0  0  0
    2.6350   29.2519   -6.6403 C   0  0  0  0  0  0  0  0  0  0  0  0
    1.4695   29.4659   -7.3455 C   0  0  0  0  0  0  0  0  0  0  0  0
    0.8106   28.3922   -7.9196 C   0  0  0  0  0  0  0  0  0  0  0  0
   -0.4563   28.6680   -8.6793 C   0  0  0  0  0  0  0  0  0  0  0  0
    1.3009   27.1059   -7.7984 C   0  0  0  0  0  0  0  0  0  0  0  0
    0.5808   26.0862   -8.4031 O   0  0  0  0  0  0  0  0  0  0  0  0
    2.4612   26.8927   -7.0964 C   0  0  0  0  0  0  0  0  0  0  0  0
    2.9623   25.5173   -6.9809 C   0  0  0  0  0  0  0  0  0  0  0  0
    3.1274   27.9468   -6.5207 C   0  0  0  0  0  0  0  0  0  0  0  0
    4.3934   27.7426   -5.7502 C   0  0  0  0  0  0  0  0  0  0  0  0
    8.8454   30.1055   -4.9946 C   0  0  0  0  0  0  0  0  0  0  0  0
    9.5692   30.0497   -6.1661 C   0  0  0  0  0  0  0  0  0  0  0  0
  1  2  1  0
  2  3  1  0
  3  4  2  0
  4  5  1  0
  5  6  2  0
  6  7  1  0
  7  8  1  0
  8  9  2  0
  9 10  1  0
 10 11  2  0
 11 12  1  0
 12 13  1  0
 13 14  1  0
 14 15  2  0
 14 16  1  0
 16 17  1  0
 17 18  2  0
 18 19  1  0
 19 20  1  0
 19 21  2  0
 21 22  1  0
 21 23  1  0
 23 24  1  0
 23 25  2  0
 25 26  1  0
  6 27  1  0
 27 28  2  0
 28  3  1  0
 11  7  1  0
 25 17  1  0
M  END
$$$$
