
     RDKit          3D

 26 28  0  0  0  0  0  0  0  0999 V2000
  153.9914  152.5907  145.7446 C   0  0  0  0  0  0  0  0  0  0  0  0
  154.9778  152.7411  146.7360 O   0  0  0  0  0  0  0  0  0  0  0  0
  154.6655  153.3806  147.9273 C   0  0  0  0  0  0  0  0  0  0  0  0
  153.4443  153.9840  148.1656 C   0  0  0  0  0  0  0  0  0  0  0  0
  153.1388  154.6169  149.3485 C   0  0  0  0  0  0  0  0  0  0  0  0
  154.1131  154.6352  150.3232 C   0  0  0  0  0  0  0  0  0  0  0  0
  153.8523  155.2957  151.6222 C   0  0  0  0  0  0  0  0  0  0  0  0
  152.5079  155.7521  151.6659 N   0  0  0  0  0  0  0  0  0  0  0  0
  152.2996  156.8926  152.5187 C   0  0  0  0  0  0  0  0  0  0  0  0
  150.9081  156.8553  153.1098 C   0  0  0  0  0  0  0  0  0  0  0  0
  150.7306  155.6600  153.8579 N   0  0  0  0  0  0  0  0  0  0  0  0
  151.4398  155.5914  155.0964 C   0  0  0  0  0  0  0  0  0  0  0  0
  150.5895  156.1364  156.1773 C   0  0  0  0  0  0  0  0  0  0  0  0
  149.5534  155.3794  156.6569 C   0  0  0  0  0  0  0  0  0  0  0  0
  148.7540  155.8692  157.6649 C   0  0  0  0  0  0  0  0  0  0  0  0
  149.0004  157.1295  158.1929 C   0  0  0  0  0  0  0  0  0  0  0  0
  150.0460  157.8972  157.7111 C   0  0  0  0  0  0  0  0  0  0  0  0
  150.3036  159.1591  158.2296 O   0  0  0  0  0  0  0  0  0  0  0  0
  150.8239  157.3756  156.7033 C   0  0  0  0  0  0  0  0  0  0  0  0
  150.8990  154.4851  153.0310 C   0  0  0  0  0  0  0  0  0  0  0  0
  151.4826  154.7892  151.6794 C   0  0  0  0  0  0  0  0  0  0  0  0
  155.3352  154.0444  150.1152 C   0  0  0  0  0  0  0  0  0  0  0  0
  156.5644  154.0759  151.3660 Cl  0  0  0  0  0  0  0  0  0  0  0  0
  155.6259  153.4139  148.9238 C   0  0  0  0  0  0  0  0  0  0  0  0
  156.8720  152.8068  148.7002 O   0  0  0  0  0  0  0  0  0  0  0  0
  157.7960  153.4574  147.8658 C   0  0  0  0  0  0  0  0  0  0  0  0
  1  2  1  0
  2  3  1  0
  3  4  2  0
  4  5  1  0
  5  6  2  0
  6  7  1  0
  7  8  1  0
  8  9  1  0
  9 10  1  0
 10 11  1  0
 11 12  1  0
 12 13  1  0
 13 14  2  0
 14 15  1  0
 15 16  2  0
 16 17  1  0
 17 18  1  0
 17 19  2  0
 11 20  1  0
 20 21  1  0
  6 22  1  0
 22 23  1  0
 22 24  2  0
 24 25  1  0
 25 26  1  0
 24  3  1  0
 21  8  1  0
 19 13  1  0
M  END
$$$$
