
     RDKit          3D

 17 18  0  0  0  0  0  0  0  0999 V2000
   12.2847   30.1206   -9.5571 C   0  0  0  0  0  0  0  0  0  0  0  0
   10.8946   29.7287   -9.4395 N   0  0  0  0  0  0  0  0  0  0  0  0
   10.4988   29.5856   -8.0415 C   0  0  0  0  0  0  0  0  0  0  0  0
    9.0445   29.2185   -8.0074 C   0  0  0  0  0  0  0  0  0  0  0  0
    8.5403   29.0551   -6.6013 C   0  0  0  0  0  0  0  0  0  0  0  0
    7.0957   28.6379   -6.5557 C   0  0  0  0  0  0  0  0  0  0  0  0
    6.3208   29.6010   -5.8009 N   0  0  0  0  0  0  0  0  0  0  0  0
    5.0924   30.1293   -6.2859 C   0  0  0  0  0  0  0  0  0  0  0  0
    4.4459   29.5189   -7.3485 C   0  0  0  0  0  0  0  0  0  0  0  0
    3.2484   30.0008   -7.8052 C   0  0  0  0  0  0  0  0  0  0  0  0
    2.7275   31.0735   -7.1937 N   0  0  0  0  0  0  0  0  0  0  0  0
    3.3109   31.6956   -6.1669 C   0  0  0  0  0  0  0  0  0  0  0  0
    2.7492   32.8016   -5.5560 C   0  0  0  0  0  0  0  0  0  0  0  0
    3.3535   33.4389   -4.5006 C   0  0  0  0  0  0  0  0  0  0  0  0
    4.5530   32.9974   -4.0054 C   0  0  0  0  0  0  0  0  0  0  0  0
    5.1347   31.8914   -4.6011 C   0  0  0  0  0  0  0  0  0  0  0  0
    4.5334   31.2466   -5.6610 C   0  0  0  0  0  0  0  0  0  0  0  0
  1  2  1  0
  2  3  1  0
  3  4  1  0
  4  5  1  0
  5  6  1  0
  6  7  1  0
  7  8  1  0
  8  9  2  0
  9 10  1  0
 10 11  2  0
 11 12  1  0
 12 13  2  0
 13 14  1  0
 14 15  2  0
 15 16  1  0
 16 17  2  0
 17  8  1  0
 17 12  1  0
M  END
$$$$
