
     RDKit          3D

 17 16  0  0  0  0  0  0  0  0999 V2000
  147.2933  145.7889  148.4381 C   0  0  0  0  0  0  0  0  0  0  0  0
  147.6167  146.4019  147.3173 C   0  0  0  0  0  0  0  0  0  0  0  0
  148.1228  145.6517  146.1152 C   0  0  1  0  0  0  0  0  0  0  0  0
  149.0965  144.6226  146.6428 C   0  0  0  0  0  0  0  0  0  0  0  0
  147.0732  145.0141  145.5017 O   0  0  0  0  0  0  0  0  0  0  0  0
  148.8400  146.6221  145.2099 C   0  0  0  0  0  0  0  0  0  0  0  0
  149.5205  147.6952  145.9738 C   0  0  0  0  0  0  0  0  0  0  0  0
  150.1754  147.4180  147.0313 O   0  0  0  0  0  0  0  0  0  0  0  0
  149.4918  149.0601  145.5942 N   0  0  0  0  0  0  0  0  0  0  0  0
  150.2715  150.0943  146.2981 C   0  0  2  0  0  0  0  0  0  0  0  0
  149.3827  150.7065  147.3815 C   0  0  0  0  0  0  0  0  0  0  0  0
  150.7325  151.1490  145.3794 C   0  0  0  0  0  0  0  0  0  0  0  0
  151.4427  150.6452  144.1766 C   0  0  0  0  0  0  0  0  0  0  0  0
  152.6373  149.8176  144.3459 C   0  0  0  0  0  0  0  0  0  0  0  0
  153.2356  149.2663  143.2629 C   0  0  0  0  0  0  0  0  0  0  0  0
  152.6031  149.4560  141.9347 C   0  0  0  0  0  0  0  0  0  0  0  0
  154.4883  148.4840  143.3375 C   0  0  0  0  0  0  0  0  0  0  0  0
  1  2  2  0
  2  3  1  0
  3  4  1  1
  3  5  1  0
  3  6  1  0
  6  7  1  0
  7  8  2  0
  7  9  1  0
  9 10  1  0
 10 11  1  1
 10 12  1  0
 12 13  1  0
 13 14  1  0
 14 15  2  3
 15 16  1  0
 15 17  1  0
M  END
$$$$
