
     RDKit          3D

 17 16  0  0  0  0  0  0  0  0999 V2000
  158.3956  152.7762  148.0350 C   0  0  0  0  0  0  0  0  0  0  0  0
  157.6348  152.4949  146.9966 C   0  0  0  0  0  0  0  0  0  0  0  0
  156.1673  152.1954  147.1407 C   0  0  1  0  0  0  0  0  0  0  0  0
  156.0449  150.6887  147.1388 C   0  0  0  0  0  0  0  0  0  0  0  0
  155.7181  152.6881  148.3408 O   0  0  0  0  0  0  0  0  0  0  0  0
  155.4400  152.7724  145.9516 C   0  0  0  0  0  0  0  0  0  0  0  0
  153.9728  152.8078  146.1614 C   0  0  0  0  0  0  0  0  0  0  0  0
  153.2426  151.8373  145.7753 O   0  0  0  0  0  0  0  0  0  0  0  0
  153.3008  153.8879  146.7856 N   0  0  0  0  0  0  0  0  0  0  0  0
  151.8369  153.9177  146.9556 C   0  0  2  0  0  0  0  0  0  0  0  0
  151.2039  154.1907  145.5906 C   0  0  0  0  0  0  0  0  0  0  0  0
  151.4202  154.9565  147.9128 C   0  0  0  0  0  0  0  0  0  0  0  0
  151.5878  154.5772  149.3387 C   0  0  0  0  0  0  0  0  0  0  0  0
  152.5738  155.2849  150.1557 C   0  0  0  0  0  0  0  0  0  0  0  0
  152.5887  155.1092  151.4987 C   0  0  0  0  0  0  0  0  0  0  0  0
  153.6708  155.7537  152.2824 C   0  0  0  0  0  0  0  0  0  0  0  0
  151.5804  154.3067  152.2240 C   0  0  0  0  0  0  0  0  0  0  0  0
  1  2  2  0
  2  3  1  0
  3  4  1  1
  3  5  1  0
  3  6  1  0
  6  7  1  0
  7  8  2  0
  7  9  1  0
  9 10  1  0
 10 11  1  6
 10 12  1  0
 12 13  1  0
 13 14  1  0
 14 15  2  3
 15 16  1  0
 15 17  1  0
M  END
$$$$
