
     RDKit          3D

 17 16  0  0  0  0  0  0  0  0999 V2000
  152.1987  170.2008  136.4753 C   0  0  0  0  0  0  0  0  0  0  0  0
  151.9150  169.4256  135.4482 C   0  0  0  0  0  0  0  0  0  0  0  0
  152.6217  169.5617  134.1268 C   0  0  1  0  0  0  0  0  0  0  0  0
  151.5508  169.4511  133.0655 C   0  0  0  0  0  0  0  0  0  0  0  0
  153.2121  170.7989  134.0518 O   0  0  0  0  0  0  0  0  0  0  0  0
  153.6037  168.4251  133.9876 C   0  0  0  0  0  0  0  0  0  0  0  0
  154.6478  168.7137  132.9754 C   0  0  0  0  0  0  0  0  0  0  0  0
  155.4242  169.7144  133.1172 O   0  0  0  0  0  0  0  0  0  0  0  0
  154.8495  167.9232  131.8168 N   0  0  0  0  0  0  0  0  0  0  0  0
  156.1434  167.8658  131.1129 C   0  0  2  0  0  0  0  0  0  0  0  0
  156.0555  168.7655  129.8796 C   0  0  0  0  0  0  0  0  0  0  0  0
  156.4801  166.4921  130.7024 C   0  0  0  0  0  0  0  0  0  0  0  0
  157.5309  165.8465  131.5296 C   0  0  0  0  0  0  0  0  0  0  0  0
  157.9809  164.4969  131.1883 C   0  0  0  0  0  0  0  0  0  0  0  0
  158.8682  163.8586  131.9883 C   0  0  0  0  0  0  0  0  0  0  0  0
  159.3679  164.5659  133.1926 C   0  0  0  0  0  0  0  0  0  0  0  0
  159.3646  162.4913  131.7220 C   0  0  0  0  0  0  0  0  0  0  0  0
  1  2  2  0
  2  3  1  0
  3  4  1  6
  3  5  1  0
  3  6  1  0
  6  7  1  0
  7  8  2  0
  7  9  1  0
  9 10  1  0
 10 11  1  6
 10 12  1  0
 12 13  1  0
 13 14  1  0
 14 15  2  3
 15 16  1  0
 15 17  1  0
M  END
$$$$
