
     RDKit          3D

 22 23  0  0  0  0  0  0  0  0999 V2000
  128.2182  139.4790  142.6476 C   0  0  0  0  0  0  0  0  0  0  0  0
  127.8277  139.4629  143.9134 C   0  0  0  0  0  0  0  0  0  0  0  0
  127.3358  140.5896  144.6240 N   0  0  0  0  0  2  0  0  0  0  0  0
  127.4569  140.2222  146.0125 C   0  0  0  0  0  0  0  0  0  0  0  0
  127.4307  141.0275  147.0639 C   0  0  0  0  0  0  0  0  0  0  0  0
  127.5074  142.4248  146.8209 N   0  0  0  0  0  0  0  0  0  0  0  0
  127.1276  143.3913  147.7948 C   0  0  0  0  0  0  0  0  0  0  0  0
  125.7192  144.4229  147.5478 Cl  0  0  0  0  0  0  0  0  0  0  0  0
  127.8221  143.4965  148.8481 N   0  0  0  0  0  0  0  0  0  0  0  0
  127.8160  144.5236  149.8024 C   0  0  0  0  0  0  0  0  0  0  0  0
  127.6634  145.8547  149.3837 C   0  0  0  0  0  0  0  0  0  0  0  0
  127.6866  146.9177  150.2612 C   0  0  0  0  0  0  0  0  0  0  0  0
  127.8656  146.6918  151.6120 C   0  0  0  0  0  0  0  0  0  0  0  0
  128.0137  145.4188  152.0367 C   0  0  0  0  0  0  0  0  0  0  0  0
  127.9908  144.3224  151.1472 C   0  0  0  0  0  0  0  0  0  0  0  0
  128.1131  143.0063  151.7792 C   0  0  0  0  0  0  0  0  0  0  0  0
  127.5280  142.8570  153.1410 C   0  0  0  0  0  0  0  0  0  0  0  0
  127.5473  141.4763  153.6786 C   0  0  0  0  0  0  0  0  0  0  0  0
  128.8468  140.9878  153.7950 O   0  0  0  0  0  0  0  0  0  0  0  0
  127.6140  138.7559  146.0089 C   0  0  0  0  0  0  0  0  0  0  0  0
  127.8298  138.3054  144.7950 C   0  0  0  0  0  0  0  0  0  0  0  0
  128.0803  136.6529  144.2579 Cl  0  0  0  0  0  0  0  0  0  0  0  0
  1  2  2  0
  2  3  1  0
  3  4  1  0
  4  5  2  3
  5  6  1  0
  6  7  1  0
  7  8  1  0
  7  9  2  3
  9 10  1  0
 10 11  2  0
 11 12  1  0
 12 13  2  0
 13 14  1  0
 14 15  2  0
 15 16  1  0
 16 17  1  0
 17 18  1  0
 18 19  1  0
  4 20  1  0
 20 21  2  0
 21 22  1  0
 21  2  1  0
 15 10  1  0
M  CHG  1   3   1
M  RAD  1   3   3
M  END
$$$$
