
     RDKit          3D

 21 22  0  0  0  0  0  0  0  0999 V2000
   11.4568   26.1133   21.5283 C   0  0  0  0  0  0  0  0  0  0  0  0
   11.6283   27.2592   22.1671 C   0  0  0  0  0  0  0  0  0  0  0  0
   12.8195   28.1184   21.8704 C   0  0  0  0  0  0  0  0  0  0  0  0
   12.9196   29.1960   22.9232 C   0  0  0  0  0  0  0  0  0  0  0  0
   12.6783   28.7703   20.5829 N   0  0  0  0  0  0  0  0  0  0  0  0
   13.7626   29.5780   20.0878 C   0  0  0  0  0  0  0  0  0  0  0  0
   14.8166   29.7267   20.7511 O   0  0  0  0  0  0  0  0  0  0  0  0
   13.6789   30.2359   18.8304 N   0  0  0  0  0  0  0  0  0  0  0  0
   14.8288   30.7077   18.0900 C   0  0  0  0  0  0  0  0  0  0  0  0
   15.6316   29.6007   17.4600 C   0  0  0  0  0  0  0  0  0  0  0  0
   14.9835   29.2059   16.1696 C   0  0  0  0  0  0  0  0  0  0  0  0
   15.2855   27.8129   15.7220 C   0  0  0  0  0  0  0  0  0  0  0  0
   13.9812   27.0955   15.5667 C   0  0  0  0  0  0  0  0  0  0  0  0
   13.7725   25.7296   15.4675 C   0  0  0  0  0  0  0  0  0  0  0  0
   12.4733   25.4539   15.3388 N   0  0  0  0  0  0  0  0  0  0  0  0
   11.7978   26.6192   15.3496 C   0  0  0  0  0  0  0  0  0  0  0  0
   10.4345   26.8230   15.2440 C   0  0  0  0  0  0  0  0  0  0  0  0
   10.0078   28.1409   15.2854 C   0  0  0  0  0  0  0  0  0  0  0  0
   10.8934   29.1744   15.4233 C   0  0  0  0  0  0  0  0  0  0  0  0
   12.2640   28.9317   15.5273 C   0  0  0  0  0  0  0  0  0  0  0  0
   12.7065   27.6436   15.4890 C   0  0  0  0  0  0  0  0  0  0  0  0
  1  2  2  0
  2  3  1  0
  3  4  1  0
  3  5  1  0
  5  6  1  0
  6  7  2  0
  6  8  1  0
  8  9  1  0
  9 10  1  0
 10 11  1  0
 11 12  1  0
 12 13  1  0
 13 14  2  0
 14 15  1  0
 15 16  1  0
 16 17  2  0
 17 18  1  0
 18 19  2  0
 19 20  1  0
 20 21  2  0
 21 13  1  0
 21 16  1  0
M  END
$$$$
