
     RDKit          3D

 22 24  0  0  0  0  0  0  0  0999 V2000
  118.0567  138.6556   98.0574 Cl  0  0  0  0  0  0  0  0  0  0  0  0
  116.4013  138.9050   97.6785 C   0  0  0  0  0  0  0  0  0  0  0  0
  115.3925  138.1558   98.2672 C   0  0  0  0  0  0  0  0  0  0  0  0
  114.0449  138.3602   97.9416 C   0  0  0  0  0  0  0  0  0  0  0  0
  113.6415  139.2805   97.0256 C   0  0  0  0  0  0  0  0  0  0  0  0
  114.6156  140.0590   96.4471 C   0  0  0  0  0  0  0  0  0  0  0  0
  115.9425  139.8512   96.7735 C   0  0  0  0  0  0  0  0  0  0  0  0
  114.3531  141.3891   95.8515 N   0  0  0  0  0  0  0  0  0  0  0  0
  113.3778  142.3212   96.4101 C   0  0  0  0  0  0  0  0  0  0  0  0
  114.1126  143.2933   97.2343 C   0  0  0  0  0  0  0  0  0  0  0  0
  113.8895  144.5166   97.5671 C   0  0  0  0  0  0  0  0  0  0  0  0
  112.7748  145.4237   97.2335 C   0  0  0  0  0  0  0  0  0  0  0  0
  112.0618  145.1496   95.6321 Cl  0  0  0  0  0  0  0  0  0  0  0  0
  111.8397  145.5413   98.2417 O   0  0  0  0  0  0  0  0  0  0  0  0
  112.1938  144.9567   99.4417 C   0  0  0  0  0  0  0  0  0  0  0  0
  111.5750  143.5917   99.6325 C   0  0  0  0  0  0  0  0  0  0  0  0
  112.4995  142.4948   99.5631 N   0  0  0  0  0  0  0  0  0  0  0  0
  112.3184  141.3546   98.6093 C   0  0  0  0  0  0  0  0  0  0  0  0
  112.2465  140.2078   99.0212 N   0  0  0  0  0  0  0  0  0  0  0  0
  112.1657  139.0071   99.3816 C   0  0  0  0  0  0  0  0  0  0  0  0
  113.0601  137.8767   98.9808 N   0  0  0  0  0  0  0  0  0  0  0  0
  112.2134  141.8014   97.1389 C   0  0  0  0  0  0  0  0  0  0  0  0
  1  2  1  0
  2  3  2  0
  3  4  1  0
  4  5  2  0
  5  6  1  0
  6  7  2  0
  6  8  1  0
  8  9  1  0
  9 10  1  0
 10 11  2  0
 11 12  1  0
 12 13  1  0
 12 14  1  0
 14 15  1  0
 15 16  1  0
 16 17  1  0
 17 18  1  0
 18 19  2  0
 19 20  1  0
 20 21  1  0
 18 22  1  0
  7  2  1  0
 22  9  1  0
 21  4  1  0
M  END
$$$$
