
     RDKit          3D

 22 24  0  0  0  0  0  0  0  0999 V2000
  129.3916  144.7811  151.5860 Cl  0  0  0  0  0  0  0  0  0  0  0  0
  128.1605  144.3648  150.4647 C   0  0  0  0  0  0  0  0  0  0  0  0
  127.8556  145.1700  149.3766 C   0  0  0  0  0  0  0  0  0  0  0  0
  126.8404  144.8260  148.4739 C   0  0  0  0  0  0  0  0  0  0  0  0
  126.0832  143.7051  148.6117 C   0  0  0  0  0  0  0  0  0  0  0  0
  126.3813  142.8717  149.6634 C   0  0  0  0  0  0  0  0  0  0  0  0
  127.3840  143.2181  150.5493 C   0  0  0  0  0  0  0  0  0  0  0  0
  126.0420  141.4303  149.6864 N   0  0  0  0  0  0  0  0  0  0  0  0
  126.0859  140.5939  148.4904 C   0  0  0  0  0  0  0  0  0  0  0  0
  127.3664  139.8698  148.5005 C   0  0  0  0  0  0  0  0  0  0  0  0
  127.7465  138.7405  148.0135 C   0  0  0  0  0  0  0  0  0  0  0  0
  127.0116  137.7231  147.2381 C   0  0  0  0  0  0  0  0  0  0  0  0
  125.2889  137.5965  147.6435 Cl  0  0  0  0  0  0  0  0  0  0  0  0
  127.2567  137.7814  145.8812 O   0  0  0  0  0  0  0  0  0  0  0  0
  128.2744  138.6357  145.5048 C   0  0  0  0  0  0  0  0  0  0  0  0
  127.7661  139.9735  145.0206 C   0  0  0  0  0  0  0  0  0  0  0  0
  128.0359  141.0761  145.9005 N   0  0  0  0  0  0  0  0  0  0  0  0
  126.9510  141.9651  146.4254 C   0  0  0  0  0  0  0  0  0  0  0  0
  126.9866  143.1690  146.2274 N   0  0  0  0  0  0  0  0  0  0  0  0
  126.9657  144.4135  146.0578 C   0  0  0  0  0  0  0  0  0  0  0  0
  126.9540  145.4737  147.1134 N   0  0  0  0  0  0  0  0  0  0  0  0
  125.8443  141.1985  147.1739 C   0  0  0  0  0  0  0  0  0  0  0  0
  1  2  1  0
  2  3  2  0
  3  4  1  0
  4  5  2  0
  5  6  1  0
  6  7  2  0
  6  8  1  0
  8  9  1  0
  9 10  1  0
 10 11  2  0
 11 12  1  0
 12 13  1  0
 12 14  1  0
 14 15  1  0
 15 16  1  0
 16 17  1  0
 17 18  1  0
 18 19  2  0
 19 20  1  0
 20 21  1  0
 18 22  1  0
  7  2  1  0
 22  9  1  0
 21  4  1  0
M  END
$$$$
