
     RDKit          3D

 22 24  0  0  0  0  0  0  0  0999 V2000
  129.7402  142.5350  157.7504 Cl  0  0  0  0  0  0  0  0  0  0  0  0
  130.2621  142.6688  156.1208 C   0  0  0  0  0  0  0  0  0  0  0  0
  130.7275  141.5739  155.4066 C   0  0  0  0  0  0  0  0  0  0  0  0
  131.1620  141.6971  154.0801 C   0  0  0  0  0  0  0  0  0  0  0  0
  131.1748  142.8847  153.4181 C   0  0  0  0  0  0  0  0  0  0  0  0
  130.6915  143.9826  154.0894 C   0  0  0  0  0  0  0  0  0  0  0  0
  130.2648  143.8529  155.3975 C   0  0  0  0  0  0  0  0  0  0  0  0
  130.1659  145.1898  153.4115 N   0  0  0  0  0  0  0  0  0  0  0  0
  129.4137  145.1239  152.1618 C   0  0  0  0  0  0  0  0  0  0  0  0
  127.9834  145.1953  152.4989 C   0  0  0  0  0  0  0  0  0  0  0  0
  126.9466  145.6203  151.8653 C   0  0  0  0  0  0  0  0  0  0  0  0
  126.8075  146.2112  150.5207 C   0  0  0  0  0  0  0  0  0  0  0  0
  128.2061  147.1666  149.9923 Cl  0  0  0  0  0  0  0  0  0  0  0  0
  126.3584  145.3172  149.5700 O   0  0  0  0  0  0  0  0  0  0  0  0
  125.9378  144.0979  150.0632 C   0  0  0  0  0  0  0  0  0  0  0  0
  126.9900  143.0211  149.9364 C   0  0  0  0  0  0  0  0  0  0  0  0
  127.5722  142.5969  151.1789 N   0  0  0  0  0  0  0  0  0  0  0  0
  129.0493  142.6310  151.4234 C   0  0  0  0  0  0  0  0  0  0  0  0
  129.6500  141.6137  151.7305 N   0  0  0  0  0  0  0  0  0  0  0  0
  130.3246  140.6030  152.0490 C   0  0  0  0  0  0  0  0  0  0  0  0
  131.1463  140.4123  153.2847 N   0  0  0  0  0  0  0  0  0  0  0  0
  129.6683  144.0266  151.2194 C   0  0  0  0  0  0  0  0  0  0  0  0
  1  2  1  0
  2  3  2  0
  3  4  1  0
  4  5  2  0
  5  6  1  0
  6  7  2  0
  6  8  1  0
  8  9  1  0
  9 10  1  0
 10 11  2  0
 11 12  1  0
 12 13  1  0
 12 14  1  0
 14 15  1  0
 15 16  1  0
 16 17  1  0
 17 18  1  0
 18 19  2  0
 19 20  1  0
 20 21  1  0
 18 22  1  0
  7  2  1  0
 22  9  1  0
 21  4  1  0
M  END
$$$$
