
     RDKit          3D

 24 25  0  0  0  0  0  0  0  0999 V2000
   69.7493   80.5427   40.0380 C   0  0  0  0  0  0  0  0  0  0  0  0
   70.7658   80.0474   40.7796 C   0  0  0  0  0  0  0  0  0  0  0  0
   70.5183   78.3775   41.3154 Cl  0  0  0  0  0  0  0  0  0  0  0  0
   71.8965   80.8795   41.1044 C   0  0  0  0  0  0  0  0  0  0  0  0
   72.8705   81.4324   41.1368 C   0  0  0  0  0  0  0  0  0  0  0  0
   72.7063   80.2808   39.4297 C   0  0  0  0  0  0  0  0  0  0  0  0
   72.3457   81.2318   38.6945 C   0  0  0  0  0  0  0  0  0  0  0  0
   72.0049   82.1681   37.9531 C   0  0  0  0  0  0  0  0  0  0  0  0
   71.6080   83.2843   37.0504 C   0  0  0  0  0  0  0  0  0  0  0  0
   70.1677   83.4570   36.7699 C   0  0  0  0  0  0  0  0  0  0  0  0
   69.9467   82.6923   35.5164 N   0  0  0  0  0  0  0  0  0  0  0  0
   70.8608   82.9272   34.4603 N   0  0  0  0  0  0  0  0  0  0  0  0
   70.6272   82.3941   33.2811 C   0  0  0  0  0  0  0  0  0  0  0  0
   71.6268   82.7034   32.2811 N   0  0  0  0  0  0  0  0  0  0  0  0
   71.7691   81.8935   31.0947 C   0  0  0  0  0  0  0  0  0  0  0  0
   72.5935   82.6237   30.0602 C   0  0  0  0  0  0  0  0  0  0  0  0
   72.3771   81.8686   28.4614 Cl  0  0  0  0  0  0  0  0  0  0  0  0
   69.4841   81.5634   32.9964 C   0  0  0  0  0  0  0  0  0  0  0  0
   69.3335   81.0614   31.7336 C   0  0  0  0  0  0  0  0  0  0  0  0
   68.1906   80.2743   31.5220 C   0  0  0  0  0  0  0  0  0  0  0  0
   67.2555   80.0161   32.5447 C   0  0  0  0  0  0  0  0  0  0  0  0
   67.4612   80.5391   33.8002 C   0  0  0  0  0  0  0  0  0  0  0  0
   68.5757   81.3152   34.0134 C   0  0  0  0  0  0  0  0  0  0  0  0
   68.8504   81.9117   35.2895 N   0  0  0  0  0  0  0  0  0  0  0  0
  1  2  2  0
  2  3  1  0
  2  4  1  0
  4  5  2  0
  4  6  1  0
  6  7  1  0
  7  8  3  0
  8  9  1  0
  9 10  1  0
 10 11  1  0
 11 12  1  0
 12 13  2  0
 13 14  1  0
 14 15  1  0
 15 16  1  0
 16 17  1  0
 13 18  1  0
 18 19  2  0
 19 20  1  0
 20 21  2  0
 21 22  1  0
 22 23  2  0
 23 24  1  0
 24 11  1  0
 23 18  1  0
M  END
$$$$
