
     RDKit          3D

 24 25  0  0  0  0  0  0  0  0999 V2000
   -2.1260   -9.1191  -60.9671 C   0  0  0  0  0  0  0  0  0  0  0  0
   -1.6473   -8.5056  -62.0731 C   0  0  0  0  0  0  0  0  0  0  0  0
   -0.3132   -9.3694  -62.8545 Cl  0  0  0  0  0  0  0  0  0  0  0  0
   -2.1930   -7.2392  -62.4911 C   0  0  0  0  0  0  0  0  0  0  0  0
   -2.3726   -6.2031  -62.8778 C   0  0  0  0  0  0  0  0  0  0  0  0
   -0.3867   -6.7451  -63.0495 C   0  0  0  0  0  0  0  0  0  0  0  0
   -0.1159   -5.9412  -62.1246 C   0  0  0  0  0  0  0  0  0  0  0  0
    0.1364   -5.1325  -61.2164 C   0  0  0  0  0  0  0  0  0  0  0  0
    0.4212   -4.1553  -60.1290 C   0  0  0  0  0  0  0  0  0  0  0  0
    1.6502   -4.3568  -59.3341 C   0  0  0  0  0  0  0  0  0  0  0  0
    1.1572   -4.8249  -58.0140 N   0  0  0  0  0  0  0  0  0  0  0  0
   -0.1484   -5.3730  -57.9823 N   0  0  0  0  0  0  0  0  0  0  0  0
   -0.6927   -5.6636  -56.8209 C   0  0  0  0  0  0  0  0  0  0  0  0
   -2.0275   -6.2156  -56.9122 N   0  0  0  0  0  0  0  0  0  0  0  0
   -2.6551   -6.4393  -58.1927 C   0  0  0  0  0  0  0  0  0  0  0  0
   -2.3280   -7.8248  -58.6992 C   0  0  0  0  0  0  0  0  0  0  0  0
   -3.2931   -8.1888  -60.1515 Cl  0  0  0  0  0  0  0  0  0  0  0  0
   -0.0261   -5.4643  -55.5584 C   0  0  0  0  0  0  0  0  0  0  0  0
   -0.6842   -5.7969  -54.4071 C   0  0  0  0  0  0  0  0  0  0  0  0
    0.0169   -5.5621  -53.2138 C   0  0  0  0  0  0  0  0  0  0  0  0
    1.3171   -5.0179  -53.2002 C   0  0  0  0  0  0  0  0  0  0  0  0
    1.9363   -4.7098  -54.3893 C   0  0  0  0  0  0  0  0  0  0  0  0
    1.2537   -4.9323  -55.5616 C   0  0  0  0  0  0  0  0  0  0  0  0
    1.8239   -4.6194  -56.8410 N   0  0  0  0  0  0  0  0  0  0  0  0
  1  2  2  0
  2  3  1  0
  2  4  1  0
  4  5  2  0
  4  6  1  0
  6  7  1  0
  7  8  3  0
  8  9  1  0
  9 10  1  0
 10 11  1  0
 11 12  1  0
 12 13  2  0
 13 14  1  0
 14 15  1  0
 15 16  1  0
 16 17  1  0
 13 18  1  0
 18 19  2  0
 19 20  1  0
 20 21  2  0
 21 22  1  0
 22 23  2  0
 23 24  1  0
 24 11  1  0
 23 18  1  0
M  END
$$$$
