
     RDKit          3D

 24 26  0  0  0  0  0  0  0  0999 V2000
   -5.2527   68.7356   -2.9999 C   0  0  0  0  0  0  0  0  0  0  0  0
   -5.8084   69.7911   -2.2345 O   0  0  0  0  0  0  0  0  0  0  0  0
   -6.1256   69.5964   -0.8956 C   0  0  0  0  0  0  0  0  0  0  0  0
   -6.6359   70.5253   -0.0371 C   0  0  0  0  0  0  0  0  0  0  0  0
   -6.9134   70.2180    1.2772 C   0  0  0  0  0  0  0  0  0  0  0  0
   -6.6945   68.9618    1.8037 C   0  0  0  0  0  0  0  0  0  0  0  0
   -7.0202   68.7347    3.2070 C   0  0  0  0  0  0  0  0  0  0  0  0
   -7.6325   69.6879    3.9930 C   0  0  0  0  0  0  0  0  0  0  0  0
   -7.9171   69.4103    5.3256 C   0  0  0  0  0  0  0  0  0  0  0  0
   -8.4739   70.2406    6.0897 O   0  0  0  0  0  0  0  0  0  0  0  0
   -7.5708   68.1595    5.8357 C   0  0  0  0  0  0  0  0  0  0  0  0
   -7.8092   67.7846    7.1428 C   0  0  0  0  0  0  0  0  0  0  0  0
   -8.4171   68.7094    7.9522 O   0  0  0  0  0  0  0  0  0  0  0  0
   -7.4370   66.5219    7.5816 C   0  0  0  0  0  0  0  0  0  0  0  0
   -7.7306   66.2665    8.9144 O   0  0  0  0  0  0  0  0  0  0  0  0
   -6.7864   66.4162    9.9514 C   0  0  0  0  0  0  0  0  0  0  0  0
   -6.8212   65.6088    6.7295 C   0  0  0  0  0  0  0  0  0  0  0  0
   -6.5281   64.4195    7.3365 O   0  0  0  0  0  0  0  0  0  0  0  0
   -6.0602   63.2745    6.6373 C   0  0  0  0  0  0  0  0  0  0  0  0
   -6.5926   66.0059    5.4257 C   0  0  0  0  0  0  0  0  0  0  0  0
   -6.9590   67.2599    4.9791 C   0  0  0  0  0  0  0  0  0  0  0  0
   -6.7138   67.5750    3.7293 O   0  0  0  0  0  0  0  0  0  0  0  0
   -6.1840   68.0278    0.9497 C   0  0  0  0  0  0  0  0  0  0  0  0
   -5.9085   68.3427   -0.3653 C   0  0  0  0  0  0  0  0  0  0  0  0
  1  2  1  0
  2  3  1  0
  3  4  2  0
  4  5  1  0
  5  6  2  0
  6  7  1  0
  7  8  2  0
  8  9  1  0
  9 10  2  0
  9 11  1  0
 11 12  2  0
 12 13  1  0
 12 14  1  0
 14 15  1  0
 15 16  1  0
 14 17  2  0
 17 18  1  0
 18 19  1  0
 17 20  1  0
 20 21  2  0
 21 22  1  0
  6 23  1  0
 23 24  2  0
 24  3  1  0
 22  7  1  0
 21 11  1  0
M  END
$$$$
