
     RDKit          3D

 24 26  0  0  0  0  0  0  0  0999 V2000
  -32.2569   51.3080    7.3765 C   0  0  0  0  0  0  0  0  0  0  0  0
  -31.3116   51.0368    6.3559 O   0  0  0  0  0  0  0  0  0  0  0  0
  -31.0073   52.0038    5.4054 C   0  0  0  0  0  0  0  0  0  0  0  0
  -31.5412   53.2559    5.3190 C   0  0  0  0  0  0  0  0  0  0  0  0
  -31.1620   54.1354    4.3283 C   0  0  0  0  0  0  0  0  0  0  0  0
  -30.2261   53.8080    3.3690 C   0  0  0  0  0  0  0  0  0  0  0  0
  -29.8912   54.8077    2.3614 C   0  0  0  0  0  0  0  0  0  0  0  0
  -30.5191   56.0334    2.2908 C   0  0  0  0  0  0  0  0  0  0  0  0
  -30.1543   56.9445    1.3057 C   0  0  0  0  0  0  0  0  0  0  0  0
  -30.6919   58.0765    1.1931 O   0  0  0  0  0  0  0  0  0  0  0  0
  -29.1507   56.5881    0.4054 C   0  0  0  0  0  0  0  0  0  0  0  0
  -28.7154   57.4187   -0.6079 C   0  0  0  0  0  0  0  0  0  0  0  0
  -29.3192   58.6457   -0.7064 O   0  0  0  0  0  0  0  0  0  0  0  0
  -27.7112   56.9971   -1.4677 C   0  0  0  0  0  0  0  0  0  0  0  0
  -27.3631   57.9221   -2.4429 O   0  0  0  0  0  0  0  0  0  0  0  0
  -28.1828   58.2133   -3.5532 C   0  0  0  0  0  0  0  0  0  0  0  0
  -27.1213   55.7426   -1.3363 C   0  0  0  0  0  0  0  0  0  0  0  0
  -26.1529   55.5029   -2.2709 O   0  0  0  0  0  0  0  0  0  0  0  0
  -25.4355   54.2799   -2.3635 C   0  0  0  0  0  0  0  0  0  0  0  0
  -27.5729   54.9284   -0.3150 C   0  0  0  0  0  0  0  0  0  0  0  0
  -28.5715   55.3383    0.5458 C   0  0  0  0  0  0  0  0  0  0  0  0
  -28.9550   54.5175    1.4949 O   0  0  0  0  0  0  0  0  0  0  0  0
  -29.6881   52.5566    3.4500 C   0  0  0  0  0  0  0  0  0  0  0  0
  -30.0726   51.6810    4.4449 C   0  0  0  0  0  0  0  0  0  0  0  0
  1  2  1  0
  2  3  1  0
  3  4  2  0
  4  5  1  0
  5  6  2  0
  6  7  1  0
  7  8  2  0
  8  9  1  0
  9 10  2  0
  9 11  1  0
 11 12  2  0
 12 13  1  0
 12 14  1  0
 14 15  1  0
 15 16  1  0
 14 17  2  0
 17 18  1  0
 18 19  1  0
 17 20  1  0
 20 21  2  0
 21 22  1  0
  6 23  1  0
 23 24  2  0
 24  3  1  0
 22  7  1  0
 21 11  1  0
M  END
$$$$
