
     RDKit          3D

 21 23  0  0  0  0  0  0  0  0999 V2000
  137.4707  139.2928  117.1330 O   0  0  0  0  0  0  0  0  0  0  0  0
  138.4726  138.3620  117.4105 C   0  0  0  0  0  0  0  0  0  0  0  0
  139.6023  138.6598  116.5405 N   0  0  0  0  0  0  0  0  0  0  0  0
  139.6902  137.8374  115.3938 C   0  0  0  0  0  0  0  0  0  0  0  0
  140.4778  138.3239  114.2793 C   0  0  0  0  0  0  0  0  0  0  0  0
  141.3452  139.2893  114.0881 C   0  0  0  0  0  0  0  0  0  0  0  0
  141.8053  140.2475  115.0623 C   0  0  0  0  0  0  0  0  0  0  0  0
  141.4271  140.4641  116.3157 C   0  0  0  0  0  0  0  0  0  0  0  0
  142.1708  141.5650  116.9739 C   0  0  0  0  0  0  0  0  0  0  0  0
  141.7112  141.7399  118.3045 N   0  0  0  0  0  0  0  0  0  0  0  0
  140.8031  141.0950  118.9278 C   0  0  0  0  0  0  0  0  0  0  0  0
  140.4617  141.4312  120.3340 C   0  0  0  0  0  0  0  0  0  0  0  0
  139.2668  142.0793  120.5541 C   0  0  0  0  0  0  0  0  0  0  0  0
  138.8620  142.4338  121.8285 C   0  0  0  0  0  0  0  0  0  0  0  0
  139.6917  142.1200  122.8883 C   0  0  0  0  0  0  0  0  0  0  0  0
  139.2029  142.5580  124.5155 Cl  0  0  0  0  0  0  0  0  0  0  0  0
  140.8909  141.4680  122.6540 C   0  0  0  0  0  0  0  0  0  0  0  0
  141.9045  141.0947  124.0365 Cl  0  0  0  0  0  0  0  0  0  0  0  0
  141.2845  141.1181  121.3678 C   0  0  0  0  0  0  0  0  0  0  0  0
  140.1176  140.0469  118.2590 N   0  0  0  0  0  0  0  0  0  0  0  0
  140.4003  139.7443  117.0430 C   0  0  0  0  0  0  0  0  0  0  0  0
  1  2  1  0
  2  3  1  0
  3  4  1  0
  4  5  1  0
  5  6  2  0
  6  7  1  0
  7  8  2  0
  8  9  1  0
  9 10  1  0
 10 11  2  0
 11 12  1  0
 12 13  2  0
 13 14  1  0
 14 15  2  0
 15 16  1  0
 15 17  1  0
 17 18  1  0
 17 19  2  0
 11 20  1  0
 20 21  2  0
 21  3  1  0
 21  8  1  0
 19 12  1  0
M  END
$$$$
