
     RDKit          3D

 23 25  0  0  0  0  0  0  0  0999 V2000
  148.9394  157.5594  158.5794 C   0  0  0  0  0  0  0  0  0  0  0  0
  149.5363  156.4077  158.1482 O   0  0  0  0  0  0  0  0  0  0  0  0
  149.5337  156.2054  156.7756 C   0  0  0  0  0  0  0  0  0  0  0  0
  150.1194  154.8817  156.4461 C   0  0  0  0  0  0  0  0  0  0  0  0
  150.1084  154.5440  155.0263 N   0  0  2  0  0  4  0  0  0  0  0  0
  149.9383  153.0728  155.0397 C   0  0  0  0  0  0  0  0  0  0  0  0
  151.3316  154.7923  154.3498 C   0  0  0  0  0  0  0  0  0  0  0  0
  151.2232  154.8868  152.8704 C   0  0  1  0  0  0  0  0  0  0  0  0
  150.3090  155.9416  152.5621 O   0  0  0  0  0  0  0  0  0  0  0  0
  152.4663  155.1668  152.0929 C   0  0  0  0  0  0  0  0  0  0  0  0
  152.2823  155.6912  150.7641 N   0  0  0  0  0  0  0  0  0  0  0  0
  152.1054  154.8764  149.6771 C   0  0  0  0  0  0  0  0  0  0  0  0
  152.0524  153.5138  149.4847 C   0  0  0  0  0  0  0  0  0  0  0  0
  151.8642  152.9493  148.2304 C   0  0  0  0  0  0  0  0  0  0  0  0
  151.7224  153.7482  147.1177 C   0  0  0  0  0  0  0  0  0  0  0  0
  151.7737  155.1006  147.2915 C   0  0  0  0  0  0  0  0  0  0  0  0
  151.9606  155.6453  148.5369 C   0  0  0  0  0  0  0  0  0  0  0  0
  152.0630  156.9624  149.0037 C   0  0  0  0  0  0  0  0  0  0  0  0
  152.0056  158.1381  148.2909 C   0  0  0  0  0  0  0  0  0  0  0  0
  152.1451  159.3704  148.9091 C   0  0  0  0  0  0  0  0  0  0  0  0
  152.3457  159.3689  150.2777 C   0  0  0  0  0  0  0  0  0  0  0  0
  152.4028  158.1945  150.9904 C   0  0  0  0  0  0  0  0  0  0  0  0
  152.2605  156.9736  150.3647 C   0  0  0  0  0  0  0  0  0  0  0  0
  1  2  1  0
  2  3  1  0
  3  4  1  0
  4  5  1  0
  5  6  1  1
  5  7  1  0
  7  8  1  0
  8  9  1  1
  8 10  1  0
 10 11  1  0
 11 12  1  0
 12 13  2  0
 13 14  1  0
 14 15  2  0
 15 16  1  0
 16 17  2  0
 17 18  1  0
 18 19  2  0
 19 20  1  0
 20 21  2  0
 21 22  1  0
 22 23  2  0
 23 11  1  0
 17 12  1  0
 23 18  1  0
M  CHG  1   5   1
M  END
$$$$
