
     RDKit          3D

 17 19  0  0  0  0  0  0  0  0999 V2000
   37.3708   42.3607   25.6795 C   0  0  0  0  0  0  0  0  0  0  0  0
   38.7666   41.8505   25.7988 C   0  0  0  0  0  0  0  0  0  0  0  0
   39.0608   40.5785   26.0479 O   0  0  0  0  0  0  0  0  0  0  0  0
   40.3829   40.4483   26.0930 C   0  0  0  0  0  0  0  0  0  0  0  0
   40.9431   41.6882   25.8630 C   0  0  0  0  0  0  0  0  0  0  0  0
   39.9209   42.5972   25.6726 C   0  0  0  0  0  0  0  0  0  0  0  0
   40.1605   44.0096   25.4045 C   0  0  0  0  0  0  0  0  0  0  0  0
   39.2084   44.8246   25.2333 O   0  0  0  0  0  0  0  0  0  0  0  0
   41.5622   44.4679   25.3376 C   0  0  0  0  0  0  0  0  0  0  0  0
   41.7440   45.8005   25.0839 C   0  0  0  0  0  0  0  0  0  0  0  0
   40.7390   46.7375   24.8885 O   0  0  0  0  0  0  0  0  0  0  0  0
   43.0487   46.3002   25.0076 C   0  0  0  0  0  0  0  0  0  0  0  0
   44.0582   45.3855   25.1988 C   0  0  0  0  0  0  0  0  0  0  0  0
   43.9294   44.0396   25.4558 C   0  0  0  0  0  0  0  0  0  0  0  0
   42.6072   43.5868   25.5229 C   0  0  0  0  0  0  0  0  0  0  0  0
   42.3272   42.1768   25.7899 C   0  0  0  0  0  0  0  0  0  0  0  0
   43.2952   41.3988   25.9543 O   0  0  0  0  0  0  0  0  0  0  0  0
  1  2  1  0
  2  3  1  0
  3  4  1  0
  4  5  2  0
  5  6  1  0
  6  7  1  0
  7  8  2  0
  7  9  1  0
  9 10  2  0
 10 11  1  0
 10 12  1  0
 12 13  2  0
 13 14  1  0
 14 15  2  0
 15 16  1  0
 16 17  2  0
  6  2  2  0
 15  9  1  0
 16  5  1  0
M  END
$$$$
