
     RDKit          3D

 24 25  0  0  0  0  0  0  0  0999 V2000
   10.3011   36.8899   20.3868 C   0  0  0  0  0  0  0  0  0  0  0  0
    9.9234   35.9556   19.3532 N   0  0  0  0  0  0  0  0  0  0  0  0
    9.4295   34.8159   19.6021 C   0  0  0  0  0  0  0  0  0  0  0  0
    9.2417   34.3323   20.9524 N   0  0  0  0  0  0  0  0  0  0  0  0
    9.8604   34.9704   22.0462 C   0  0  0  0  0  0  0  0  0  0  0  0
   10.6585   34.5012   22.9717 C   0  0  0  0  0  0  0  0  0  0  0  0
   11.2944   35.5741   24.2547 Cl  0  0  0  0  0  0  0  0  0  0  0  0
   11.1534   33.1124   23.1123 C   0  0  0  0  0  0  0  0  0  0  0  0
   12.9460   33.2176   22.9777 Cl  0  0  0  0  0  0  0  0  0  0  0  0
   10.7814   32.5139   24.4393 C   0  0  0  0  0  0  0  0  0  0  0  0
   11.5870   33.1293   25.5868 C   0  0  0  0  0  0  0  0  0  0  0  0
   10.8741   31.1234   24.5623 N   0  0  0  0  0  0  0  0  0  0  0  0
   11.8544   30.5025   23.7281 C   0  0  0  0  0  0  0  0  0  0  0  0
   10.9814   29.2427   23.7643 C   0  0  0  0  0  0  0  0  0  0  0  0
    9.8779   30.2763   24.0684 C   0  0  0  0  0  0  0  0  0  0  0  0
    9.0156   29.7005   25.1116 C   0  0  0  0  0  0  0  0  0  0  0  0
    7.7541   29.7169   25.0163 N   0  0  0  0  0  0  0  0  0  0  0  0
    6.9267   30.2110   24.0420 N   0  0  0  0  0  0  0  0  0  0  0  0
    6.7474   31.6383   23.8550 C   0  0  0  0  0  0  0  0  0  0  0  0
    6.9987   31.9578   22.4041 C   0  0  0  0  0  0  0  0  0  0  0  0
    8.0900   32.7896   22.3102 O   0  0  0  0  0  0  0  0  0  0  0  0
    8.3631   33.1602   21.0248 C   0  0  0  0  0  0  0  0  0  0  0  0
    7.0141   33.5453   20.3878 C   0  0  0  0  0  0  0  0  0  0  0  0
    8.9464   32.1041   20.1488 C   0  0  0  0  0  0  0  0  0  0  0  0
  1  2  1  0
  2  3  2  3
  3  4  1  0
  4  5  1  0
  5  6  2  0
  6  7  1  0
  6  8  1  0
  8  9  1  0
  8 10  1  0
 10 11  1  0
 10 12  1  0
 12 13  1  0
 13 14  1  0
 14 15  1  0
 15 16  1  0
 16 17  2  0
 17 18  1  0
 18 19  1  0
 19 20  1  0
 20 21  1  0
 21 22  1  0
 22 23  1  0
 22 24  1  0
 22  4  1  0
 15 12  1  0
M  END
$$$$
