
     RDKit          3D

 18 18  0  0  0  0  0  0  0  0999 V2000
    0.2735   -5.9340  -53.4926 C   0  0  0  0  0  0  0  0  0  0  0  0
    0.7160   -4.4814  -53.6801 C   0  0  0  0  0  0  0  0  0  0  0  0
    1.2930   -3.9412  -52.3901 C   0  0  0  0  0  0  0  0  0  0  0  0
    1.7818   -4.4581  -54.7311 C   0  0  0  0  0  0  0  0  0  0  0  0
    1.2546   -4.9605  -56.0498 C   0  0  0  0  0  0  0  0  0  0  0  0
    0.4747   -5.9327  -56.0573 O   0  0  0  0  0  0  0  0  0  0  0  0
    1.6266   -4.3531  -57.2626 N   0  0  0  0  0  0  0  0  0  0  0  0
    1.3066   -4.7836  -58.5807 C   0  0  0  0  0  0  0  0  0  0  0  0
    1.8786   -3.8082  -59.8145 S   0  0  0  0  0  0  0  0  0  0  0  0
    0.6142   -5.9506  -58.8933 N   0  0  0  0  0  0  0  0  0  0  0  0
    0.2244   -6.4152  -60.1558 C   0  0  0  0  0  0  0  0  0  0  0  0
    0.1547   -7.7399  -60.4657 C   0  0  0  0  0  0  0  0  0  0  0  0
   -0.2885   -8.1266  -61.7286 C   0  0  0  0  0  0  0  0  0  0  0  0
   -0.6455   -7.1718  -62.6375 C   0  0  0  0  0  0  0  0  0  0  0  0
   -1.1983   -7.6911  -64.2140 Cl  0  0  0  0  0  0  0  0  0  0  0  0
   -0.5845   -5.8212  -62.3536 C   0  0  0  0  0  0  0  0  0  0  0  0
   -1.0631   -4.6744  -63.5825 Cl  0  0  0  0  0  0  0  0  0  0  0  0
   -0.1455   -5.4600  -61.1027 C   0  0  0  0  0  0  0  0  0  0  0  0
  1  2  1  0
  2  3  1  0
  2  4  1  0
  4  5  1  0
  5  6  2  0
  5  7  1  0
  7  8  1  0
  8  9  2  0
  8 10  1  0
 10 11  1  0
 11 12  2  0
 12 13  1  0
 13 14  2  0
 14 15  1  0
 14 16  1  0
 16 17  1  0
 16 18  2  0
 18 11  1  0
M  END
$$$$
