
     RDKit          3D

 23 25  0  0  0  0  0  0  0  0999 V2000
  -10.2266   -3.1182  -58.0549 C   0  0  0  0  0  0  0  0  0  0  0  0
   -9.0803   -4.0124  -58.3808 C   0  0  0  0  0  0  0  0  0  0  0  0
   -8.1330   -3.5461  -59.2550 C   0  0  0  0  0  0  0  0  0  0  0  0
   -7.0705   -4.3399  -59.5751 C   0  0  0  0  0  0  0  0  0  0  0  0
   -6.8815   -5.6253  -59.0581 C   0  0  0  0  0  0  0  0  0  0  0  0
   -5.6989   -6.3584  -59.5035 C   0  0  0  0  0  0  0  0  0  0  0  0
   -4.5139   -5.6004  -59.7128 N   0  0  0  0  0  0  0  0  0  0  0  0
   -3.9645   -4.9033  -58.6227 C   0  0  0  0  0  0  0  0  0  0  0  0
   -2.7029   -5.4277  -58.0441 C   0  0  0  0  0  0  0  0  0  0  0  0
   -2.0905   -6.5372  -58.6464 N   0  0  0  0  0  0  0  0  0  0  0  0
   -0.6932   -6.5296  -58.8479 C   0  0  0  0  0  0  0  0  0  0  0  0
    0.0819   -5.7705  -57.8713 C   0  0  0  0  0  0  0  0  0  0  0  0
    0.8274   -4.6720  -58.2398 C   0  0  0  0  0  0  0  0  0  0  0  0
    1.5756   -3.9240  -57.3541 C   0  0  0  0  0  0  0  0  0  0  0  0
    2.3185   -2.8145  -57.7749 O   0  0  0  0  0  0  0  0  0  0  0  0
    1.5607   -4.3184  -56.0262 C   0  0  0  0  0  0  0  0  0  0  0  0
    0.8199   -5.4226  -55.6143 C   0  0  0  0  0  0  0  0  0  0  0  0
    0.0880   -6.1379  -56.5397 C   0  0  0  0  0  0  0  0  0  0  0  0
   -0.7143   -7.3174  -56.1525 C   0  0  0  0  0  0  0  0  0  0  0  0
   -2.8857   -7.2976  -59.5383 C   0  0  0  0  0  0  0  0  0  0  0  0
   -3.5572   -6.3435  -60.5021 C   0  0  0  0  0  0  0  0  0  0  0  0
   -7.8372   -6.0653  -58.1917 C   0  0  0  0  0  0  0  0  0  0  0  0
   -8.9319   -5.2657  -57.8526 C   0  0  0  0  0  0  0  0  0  0  0  0
  1  2  1  0
  2  3  2  0
  3  4  1  0
  4  5  2  0
  5  6  1  0
  6  7  1  0
  7  8  1  0
  8  9  1  0
  9 10  1  0
 10 11  1  0
 11 12  1  0
 12 13  2  0
 13 14  1  0
 14 15  1  0
 14 16  2  0
 16 17  1  0
 17 18  2  0
 18 19  1  0
 10 20  1  0
 20 21  1  0
  5 22  1  0
 22 23  2  0
 23  2  1  0
 21  7  1  0
 18 12  1  0
M  END
$$$$
