
     RDKit          3D

 11 11  0  0  0  0  0  0  0  0999 V2000
    0.7812   22.8389  -61.6672 C   0  0  0  0  0  0  0  0  0  0  0  0
    1.0912   23.5427  -62.7491 C   0  0  0  0  0  0  0  0  0  0  0  0
    0.3696   23.3393  -64.0550 C   0  0  0  0  0  0  0  0  0  0  0  0
   -0.8679   23.9703  -64.0402 O   0  0  0  0  0  0  0  0  0  0  0  0
   -1.7093   23.3452  -64.9795 C   0  0  0  0  0  0  0  0  0  0  0  0
   -3.0935   23.2540  -64.3976 C   0  0  0  0  0  0  0  0  0  0  0  0
   -3.4553   21.8449  -63.9975 C   0  0  0  0  0  0  0  0  0  0  0  0
   -2.5108   21.2683  -63.0684 N   0  0  0  0  0  0  0  0  0  0  0  0
   -2.7499   21.6796  -61.7030 C   0  0  0  0  0  0  0  0  0  0  0  0
   -1.5574   22.4479  -61.1396 C   0  0  0  0  0  0  0  0  0  0  0  0
   -0.2689   21.8150  -61.6280 C   0  0  0  0  0  0  0  0  0  0  0  0
  1  2  2  0
  2  3  1  0
  3  4  1  0
  4  5  1  0
  5  6  1  0
  6  7  1  0
  7  8  1  0
  8  9  1  0
  9 10  1  0
 10 11  1  0
 11  1  1  0
M  END
$$$$
