
     RDKit          3D

 35 37  0  0  0  0  0  0  0  0999 V2000
  149.9431  154.6339  162.5428 O   0  0  0  0  0  0  0  0  0  0  0  0
  148.5896  154.3877  162.4803 C   0  0  0  0  0  0  0  0  0  0  0  0
  148.2823  152.9926  162.9611 C   0  0  0  0  0  0  0  0  0  0  0  0
  146.9711  152.5165  162.5610 N   0  0  0  0  0  0  0  0  0  0  0  0
  146.6993  152.2539  161.1806 C   0  0  0  0  0  0  0  0  0  0  0  0
  147.5804  152.8438  160.2670 N   0  0  0  0  0  0  0  0  0  0  0  0
  147.3353  152.9597  158.9701 C   0  0  0  0  0  0  0  0  0  0  0  0
  148.2617  153.6108  158.1180 N   0  0  0  0  0  0  0  0  0  0  0  0
  149.5029  154.1735  158.4693 C   0  0  0  0  0  0  0  0  0  0  0  0
  150.0797  155.0480  157.4067 C   0  0  0  0  0  0  0  0  0  0  0  0
  151.1459  155.7595  157.4892 C   0  0  0  0  0  0  0  0  0  0  0  0
  152.2105  155.7102  158.8582 Cl  0  0  0  0  0  0  0  0  0  0  0  0
  151.5769  156.4994  156.2544 C   0  0  0  0  0  0  0  0  0  0  0  0
  151.4983  157.7550  156.4095 C   0  0  0  0  0  0  0  0  0  0  0  0
  150.9741  158.8638  156.1092 C   0  0  0  0  0  0  0  0  0  0  0  0
  150.9664  160.0136  156.8844 C   0  0  0  0  0  0  0  0  0  0  0  0
  152.1856  160.1061  157.8102 C   0  0  0  0  0  0  0  0  0  0  0  0
  152.8753  161.4543  157.6664 C   0  0  0  0  0  0  0  0  0  0  0  0
  152.3783  162.3574  158.7849 C   0  0  0  0  0  0  0  0  0  0  0  0
  153.5227  163.1099  159.4146 C   0  0  0  0  0  0  0  0  0  0  0  0
  152.9916  163.8613  160.4944 O   0  0  0  0  0  0  0  0  0  0  0  0
  153.8810  163.7805  161.5864 C   0  0  0  0  0  0  0  0  0  0  0  0
  153.3393  164.9527  162.8347 Cl  0  0  0  0  0  0  0  0  0  0  0  0
  150.1935  159.1806  154.5779 C   0  0  0  0  0  0  0  0  0  0  0  0
  150.6652  158.0530  154.2658 C   0  0  0  0  0  0  0  0  0  0  0  0
  151.0316  157.1352  154.0038 C   0  0  0  0  0  0  0  0  0  0  0  0
  151.5320  155.9009  153.6740 C   0  0  0  0  0  0  0  0  0  0  0  0
  151.8908  155.4913  155.1506 C   0  0  0  0  0  0  0  0  0  0  0  0
  146.1636  152.4683  158.5412 N   0  0  0  0  0  0  0  0  0  0  0  0
  145.2450  151.8884  159.3007 C   0  0  0  0  0  0  0  0  0  0  0  0
  144.0773  151.3667  158.8235 C   0  0  0  0  0  0  0  0  0  0  0  0
  143.1876  150.7409  159.6903 C   0  0  0  0  0  0  0  0  0  0  0  0
  143.4735  150.6398  161.0507 C   0  0  0  0  0  0  0  0  0  0  0  0
  144.6431  151.1694  161.4941 C   0  0  0  0  0  0  0  0  0  0  0  0
  145.5347  151.7858  160.6663 C   0  0  0  0  0  0  0  0  0  0  0  0
  1  2  1  0
  2  3  1  0
  3  4  1  0
  4  5  1  0
  5  6  2  0
  6  7  1  0
  7  8  1  0
  8  9  1  0
  9 10  1  0
 10 11  2  3
 11 12  1  0
 11 13  1  0
 13 14  2  0
 14 15  2  0
 15 16  1  0
 16 17  1  0
 17 18  1  0
 18 19  1  0
 19 20  1  0
 20 21  1  0
 21 22  1  0
 22 23  1  0
 15 24  1  0
 24 25  1  0
 25 26  3  0
 26 27  1  0
 27 28  2  0
  7 29  2  0
 29 30  1  0
 30 31  2  0
 31 32  1  0
 32 33  2  0
 33 34  1  0
 34 35  2  0
 35  5  1  0
 28 13  1  0
 35 30  1  0
M  END
$$$$
