
     RDKit          3D

 20 21  0  0  0  0  0  0  0  0999 V2000
    4.0439   31.5826   -2.8973 C   0  0  0  0  0  0  0  0  0  0  0  0
    3.5370   30.9724   -4.1374 C   0  0  0  0  0  0  0  0  0  0  0  0
    2.1811   30.8596   -4.3608 C   0  0  0  0  0  0  0  0  0  0  0  0
    1.6747   30.2960   -5.5061 C   0  0  0  0  0  0  0  0  0  0  0  0
    0.3256   30.1658   -5.7648 C   0  0  0  0  0  0  0  0  0  0  0  0
   -0.0454   29.5825   -6.9509 C   0  0  0  0  0  0  0  0  0  0  0  0
    0.8686   29.1248   -7.8875 C   0  0  0  0  0  0  0  0  0  0  0  0
    0.4903   28.5901   -8.9746 O   0  0  0  0  0  0  0  0  0  0  0  0
    2.1344   29.2748   -7.5880 O   0  0  0  0  0  0  0  0  0  0  0  0
    2.5403   29.8190   -6.4815 C   0  0  0  0  0  0  0  0  0  0  0  0
    3.8744   29.9365   -6.2486 C   0  0  0  0  0  0  0  0  0  0  0  0
    4.4239   30.4979   -5.1080 C   0  0  0  0  0  0  0  0  0  0  0  0
    5.7936   30.6016   -4.9033 O   0  0  0  0  0  0  0  0  0  0  0  0
    6.6117   30.6656   -6.0467 C   0  0  0  0  0  0  0  0  0  0  0  0
    7.6709   29.6107   -6.0874 C   0  0  1  0  0  0  0  0  0  0  0  0
    7.1260   28.3306   -6.1846 O   0  0  0  0  0  0  0  0  0  0  0  0
    8.5154   29.8825   -7.3351 C   0  0  0  0  0  0  0  0  0  0  0  0
    9.2103   31.1953   -7.1860 C   0  0  0  0  0  0  0  0  0  0  0  0
    9.4701   28.7430   -7.6105 C   0  0  0  0  0  0  0  0  0  0  0  0
    7.6279   29.9387   -8.4097 O   0  0  0  0  0  0  0  0  0  0  0  0
  1  2  1  0
  2  3  2  0
  3  4  1  0
  4  5  1  0
  5  6  2  0
  6  7  1  0
  7  8  2  0
  7  9  1  0
  9 10  1  0
 10 11  1  0
 11 12  2  0
 12 13  1  0
 13 14  1  0
 14 15  1  0
 15 16  1  6
 15 17  1  0
 17 18  1  0
 17 19  1  0
 17 20  1  0
 12  2  1  0
 10  4  2  0
M  END
$$$$
