
     RDKit          3D

 20 21  0  0  0  0  0  0  0  0999 V2000
    4.4334   31.4995   -3.4533 C   0  0  0  0  0  0  0  0  0  0  0  0
    3.7526   30.7800   -4.5425 C   0  0  0  0  0  0  0  0  0  0  0  0
    2.4489   31.0812   -4.8751 C   0  0  0  0  0  0  0  0  0  0  0  0
    1.7844   30.4299   -5.8850 C   0  0  0  0  0  0  0  0  0  0  0  0
    0.4811   30.7034   -6.2463 C   0  0  0  0  0  0  0  0  0  0  0  0
   -0.0638   29.9766   -7.2757 C   0  0  0  0  0  0  0  0  0  0  0  0
    0.6333   28.9915   -7.9583 C   0  0  0  0  0  0  0  0  0  0  0  0
    0.0982   28.3384   -8.9059 O   0  0  0  0  0  0  0  0  0  0  0  0
    1.8656   28.7758   -7.5719 O   0  0  0  0  0  0  0  0  0  0  0  0
    2.4297   29.4334   -6.6052 C   0  0  0  0  0  0  0  0  0  0  0  0
    3.7148   29.1465   -6.2670 C   0  0  0  0  0  0  0  0  0  0  0  0
    4.4186   29.7798   -5.2563 C   0  0  0  0  0  0  0  0  0  0  0  0
    5.7322   29.4605   -4.9378 O   0  0  0  0  0  0  0  0  0  0  0  0
    6.7409   29.9845   -5.7677 C   0  0  0  0  0  0  0  0  0  0  0  0
    8.0396   29.2493   -5.6722 C   0  0  1  0  0  0  0  0  0  0  0  0
    7.8831   27.8845   -5.9123 O   0  0  0  0  0  0  0  0  0  0  0  0
    8.9579   29.8364   -6.7474 C   0  0  0  0  0  0  0  0  0  0  0  0
    9.0986   31.3066   -6.5291 C   0  0  0  0  0  0  0  0  0  0  0  0
   10.2889   29.1201   -6.7832 C   0  0  0  0  0  0  0  0  0  0  0  0
    8.3352   29.5997   -7.9728 O   0  0  0  0  0  0  0  0  0  0  0  0
  1  2  1  0
  2  3  2  0
  3  4  1  0
  4  5  1  0
  5  6  2  0
  6  7  1  0
  7  8  2  0
  7  9  1  0
  9 10  1  0
 10 11  1  0
 11 12  2  0
 12 13  1  0
 13 14  1  0
 14 15  1  0
 15 16  1  6
 15 17  1  0
 17 18  1  0
 17 19  1  0
 17 20  1  0
 12  2  1  0
 10  4  2  0
M  END
$$$$
