
     RDKit          3D

 28 29  0  0  0  0  0  0  0  0999 V2000
  126.8001  147.4983  152.1032 C   0  0  0  0  0  0  0  0  0  0  0  0
  126.3946  146.4248  151.1401 C   0  0  0  0  0  0  0  0  0  0  0  0
  127.3168  145.6232  150.6327 C   0  0  0  0  0  0  0  0  0  0  0  0
  126.9946  144.5202  149.6875 C   0  0  0  0  0  0  0  0  0  0  0  0
  126.4152  145.1723  148.1232 Cl  0  0  0  0  0  0  0  0  0  0  0  0
  128.1643  143.6700  149.4324 C   0  0  0  0  0  0  0  0  0  0  0  0
  129.4399  143.9797  150.1319 C   0  0  0  0  0  0  0  0  0  0  0  0
  128.1199  142.6453  148.6070 C   0  0  0  0  0  0  0  0  0  0  0  0
  127.7745  141.3036  149.0765 C   0  0  0  0  0  0  0  0  0  0  0  0
  127.9160  140.2545  148.3249 C   0  0  0  0  0  0  0  0  0  0  0  0
  126.7801  139.4981  147.9418 N   0  0  0  0  0  0  0  0  0  0  0  0
  125.6223  139.4312  148.8494 C   0  0  0  0  0  0  0  0  0  0  0  0
  125.6236  138.2776  149.7453 C   0  0  0  0  0  0  0  0  0  0  0  0
  125.0831  137.0931  149.6682 C   0  0  0  0  0  0  0  0  0  0  0  0
  124.2702  136.4093  148.6886 C   0  0  0  0  0  0  0  0  0  0  0  0
  122.7688  136.3704  148.8935 C   0  0  0  0  0  0  0  0  0  0  0  0
  124.6517  135.7435  147.6477 C   0  0  0  0  0  0  0  0  0  0  0  0
  124.7867  136.0465  146.4489 N   0  0  0  0  0  0  0  0  0  0  0  0
  125.9166  136.8148  146.1000 C   0  0  0  0  0  0  0  0  0  0  0  0
  126.4420  136.8356  144.7144 C   0  0  0  0  0  0  0  0  0  0  0  0
  127.5500  137.8726  144.7198 C   0  0  0  0  0  0  0  0  0  0  0  0
  128.3128  138.0424  143.5538 N   0  0  0  0  0  0  0  0  0  0  0  0
  128.1381  137.1351  142.4453 C   0  0  0  0  0  0  0  0  0  0  0  0
  128.8051  137.7465  141.2288 C   0  0  0  0  0  0  0  0  0  0  0  0
  130.1571  137.3450  141.1663 O   0  0  0  0  0  0  0  0  0  0  0  0
  127.8013  138.5989  145.7923 N   0  0  0  0  0  0  0  0  0  0  0  0
  126.7556  138.8174  146.7180 C   0  0  0  0  0  0  0  0  0  0  0  0
  125.6418  138.2570  146.3777 N   0  0  0  0  0  0  0  0  0  0  0  0
  1  2  1  0
  2  3  2  3
  3  4  1  0
  4  5  1  0
  4  6  1  0
  6  7  1  0
  6  8  2  3
  8  9  1  0
  9 10  2  3
 10 11  1  0
 11 12  1  0
 12 13  1  0
 13 14  2  0
 14 15  1  0
 15 16  1  0
 15 17  2  0
 17 18  2  0
 18 19  1  0
 19 20  1  0
 20 21  1  0
 21 22  1  0
 22 23  1  0
 23 24  1  0
 24 25  1  0
 21 26  2  0
 26 27  1  0
 27 28  2  0
 27 11  1  0
 28 19  1  0
M  END
$$$$
