
     RDKit          3D

 24 25  0  0  0  0  0  0  0  0999 V2000
   22.3249   18.2890   23.8956 B   0  0  0  0  0  1  0  0  0  0  0  0
   21.8153   18.8591   25.2451 C   0  0  0  0  0  0  0  0  0  0  0  0
   22.7059   19.1259   26.2113 C   0  0  0  0  0  0  0  0  0  0  0  0
   22.3523   19.0396   27.6074 C   0  0  0  0  0  0  0  0  0  0  0  0
   23.0593   19.3331   28.6453 C   0  0  0  0  0  0  0  0  0  0  0  0
   22.3364   19.2040   30.2821 Cl  0  0  0  0  0  0  0  0  0  0  0  0
   24.4345   19.7760   28.6452 C   0  0  0  0  0  0  0  0  0  0  0  0
   24.7897   21.0018   28.9804 C   0  0  0  0  0  0  0  0  0  0  0  0
   25.4407   18.9128   28.2871 O   0  0  0  0  0  1  0  0  0  0  0  0
   20.4333   19.0901   25.4437 N   0  0  0  0  0  0  0  0  0  0  0  0
   19.9784   20.3038   26.0977 C   0  0  0  0  0  0  0  0  0  0  0  0
   18.7273   20.4445   26.1706 N   0  0  0  0  0  0  0  0  0  0  0  0
   18.0398   21.5275   26.7549 C   0  0  0  0  0  0  0  0  0  0  0  0
   16.6352   21.5369   26.7281 C   0  0  0  0  0  0  0  0  0  0  0  0
   15.9357   22.5867   27.2681 C   0  0  0  0  0  0  0  0  0  0  0  0
   16.6534   23.6192   27.8306 C   0  0  0  0  0  0  0  0  0  0  0  0
   18.0364   23.6163   27.8606 C   0  0  0  0  0  0  0  0  0  0  0  0
   18.7373   22.5607   27.3184 C   0  0  0  0  0  0  0  0  0  0  0  0
   20.5158   22.5046   27.3551 P   0  0  0  0  0  5  0  0  0  0  0  0
   21.2384   23.9248   26.7182 N   0  0  0  0  0  0  0  0  0  0  0  0
   22.6076   24.0962   26.9995 C   0  0  0  0  0  0  0  0  0  0  0  0
   22.9057   24.5348   28.4034 C   0  0  0  0  0  0  0  0  0  0  0  0
   24.2540   24.7467   28.5670 O   0  0  0  0  0  0  0  0  0  0  0  0
   20.9547   21.1965   26.5694 N   0  0  0  0  0  0  0  0  0  0  0  0
  1  2  1  0
  2  3  2  3
  3  4  1  0
  4  5  2  3
  5  6  1  0
  5  7  1  0
  7  8  2  0
  7  9  1  0
  2 10  1  0
 10 11  1  0
 11 12  2  0
 12 13  1  0
 13 14  2  0
 14 15  1  0
 15 16  2  0
 16 17  1  0
 17 18  2  0
 18 19  1  0
 19 20  1  0
 20 21  1  0
 21 22  1  0
 22 23  1  0
 19 24  2  0
 24 11  1  0
 18 13  1  0
M  CHG  2   1  -1   9  -1
M  RAD  1   1   2
M  END
$$$$
