
     RDKit          3D

 24 24  0  0  0  0  0  0  0  0999 V2000
    9.3830   27.7854   -9.2573 C   0  0  0  0  0  0  0  0  0  0  0  0
    8.7291   28.7508   -8.3640 N   0  0  0  0  0  3  0  0  0  0  0  0
    7.5426   28.4597   -7.9366 C   0  0  0  0  0  0  0  0  0  0  0  0
    6.2800   28.1702   -7.8222 C   0  0  0  0  0  0  0  0  0  0  0  0
    5.4068   29.1117   -7.1623 C   0  0  0  0  0  0  0  0  0  0  0  0
    4.0620   28.9490   -7.1649 C   0  0  0  0  0  0  0  0  0  0  0  0
    3.4333   27.7984   -7.8012 C   0  0  0  0  0  0  0  0  0  0  0  0
    1.9656   27.8604   -7.6623 C   0  0  0  0  0  0  0  0  0  0  0  0
    1.1196   26.8262   -8.2145 N   0  0  0  0  0  0  0  0  0  0  0  0
    1.6866   25.6507   -8.8226 C   0  0  0  0  0  0  0  0  0  0  0  0
    0.6480   24.7554   -9.4267 C   0  0  0  0  0  0  0  0  0  0  0  0
   -0.1559   25.4713  -10.3240 O   0  0  0  0  0  0  0  0  0  0  0  0
    1.3411   28.8135   -7.0555 N   0  0  0  0  0  0  0  0  0  0  0  0
    2.0111   29.9084   -6.4551 C   0  0  0  0  0  0  0  0  0  0  0  0
    1.3289   30.9606   -5.7858 N   0  0  0  0  0  0  0  0  0  0  0  0
    2.0380   31.7766   -4.8650 C   0  0  0  0  0  0  0  0  0  0  0  0
    2.0966   33.2517   -4.9964 C   0  0  0  0  0  0  0  0  0  0  0  0
    2.6799   31.1866   -3.8353 C   0  0  0  0  0  0  0  0  0  0  0  0
    3.1875   32.0223   -2.7858 C   0  0  0  0  0  0  0  0  0  0  0  0
    4.2539   31.8939   -2.0885 C   0  0  0  0  0  0  0  0  0  0  0  0
    4.0580   32.4102   -0.3507 Cl  0  0  0  0  0  0  0  0  0  0  0  0
    5.5728   31.4085   -2.4628 C   0  0  0  0  0  0  0  0  0  0  0  0
    6.6875   31.1288   -1.1735 Cl  0  0  0  0  0  0  0  0  0  0  0  0
    3.2846   29.9409   -6.5246 N   0  0  0  0  0  0  0  0  0  0  0  0
  1  2  1  0
  2  3  2  0
  3  4  2  0
  4  5  1  0
  5  6  2  3
  6  7  1  0
  7  8  1  0
  8  9  1  0
  9 10  1  0
 10 11  1  0
 11 12  1  0
  8 13  2  0
 13 14  1  0
 14 15  1  0
 15 16  1  0
 16 17  1  0
 16 18  2  3
 18 19  1  0
 19 20  2  3
 20 21  1  0
 20 22  1  0
 22 23  1  0
 14 24  2  0
 24  6  1  0
M  CHG  1   2   1
M  RAD  1   2   2
M  END
$$$$
