
     RDKit          3D

 20 20  0  0  0  0  0  0  0  0999 V2000
  157.5197  153.4703  149.6545 C   0  0  0  0  0  0  0  0  0  0  0  0
  157.1936  153.9903  148.4871 C   0  0  0  0  0  0  0  0  0  0  0  0
  155.8894  153.6357  147.8124 C   0  0  1  0  0  0  0  0  0  0  0  0
  155.8786  154.3504  146.4713 C   0  0  0  0  0  0  0  0  0  0  0  0
  155.7748  152.2779  147.6356 O   0  0  0  0  0  0  0  0  0  0  0  0
  154.8077  154.2043  148.6439 C   0  0  0  0  0  0  0  0  0  0  0  0
  155.0204  155.3652  149.1242 O   0  0  0  0  0  0  0  0  0  0  0  0
  153.5881  153.5124  148.9070 N   0  0  0  0  0  0  0  0  0  0  0  0
  152.5264  154.1622  149.5977 C   0  0  0  0  0  0  0  0  0  0  0  0
  152.7851  155.0044  150.6683 C   0  0  0  0  0  0  0  0  0  0  0  0
  151.7454  155.6179  151.3164 C   0  0  0  0  0  0  0  0  0  0  0  0
  151.9700  156.6969  152.6767 S   0  0  0  0  0  6  0  0  0  0  0  0
  153.2425  157.5058  152.4981 O   0  0  0  0  0  0  0  0  0  0  0  0
  150.8342  157.6300  152.8437 O   0  0  0  0  0  0  0  0  0  0  0  0
  152.2305  155.6752  154.1201 C   0  0  0  0  0  0  0  0  0  0  0  0
  150.9280  155.0859  154.6106 C   0  0  0  0  0  0  0  0  0  0  0  0
  150.4697  155.3725  150.8756 C   0  0  0  0  0  0  0  0  0  0  0  0
  150.1795  154.5357  149.8081 C   0  0  0  0  0  0  0  0  0  0  0  0
  151.2259  153.9184  149.1561 C   0  0  0  0  0  0  0  0  0  0  0  0
  151.0263  153.0662  148.0793 O   0  0  0  0  0  0  0  0  0  0  0  0
  1  2  2  0
  2  3  1  0
  3  4  1  6
  3  5  1  0
  3  6  1  0
  6  7  2  0
  6  8  1  0
  8  9  1  0
  9 10  2  0
 10 11  1  0
 11 12  1  0
 12 13  2  0
 12 14  2  0
 12 15  1  0
 15 16  1  0
 11 17  2  0
 17 18  1  0
 18 19  2  0
 19 20  1  0
 19  9  1  0
M  END
$$$$
