
     RDKit          3D

 26 28  0  0  0  0  0  0  0  0999 V2000
  168.8450  140.2204  159.8804 C   0  0  0  0  0  0  0  0  0  0  0  0
  168.7413  139.7383  158.4336 C   0  0  0  0  0  0  0  0  0  0  0  0
  168.9886  140.8424  157.4698 C   0  0  1  0  0  0  0  0  0  0  0  0
  169.2009  140.3488  156.0765 C   0  0  0  0  0  0  0  0  0  0  0  0
  168.2011  140.0891  155.3726 O   0  0  0  0  0  0  0  0  0  0  0  0
  170.4777  140.1600  155.5124 N   0  0  0  0  0  0  0  0  0  0  0  0
  170.7526  140.1194  154.1171 C   0  0  0  0  0  0  0  0  0  0  0  0
  170.1016  139.2300  153.2885 C   0  0  0  0  0  0  0  0  0  0  0  0
  170.3623  139.1827  151.9287 C   0  0  0  0  0  0  0  0  0  0  0  0
  171.2879  140.0283  151.3503 C   0  0  0  0  0  0  0  0  0  0  0  0
  171.9460  140.9227  152.1682 C   0  0  0  0  0  0  0  0  0  0  0  0
  172.8835  141.7894  151.6247 O   0  0  0  0  0  0  0  0  0  0  0  0
  173.1115  141.9582  150.2632 C   0  0  0  0  0  0  0  0  0  0  0  0
  171.6862  140.9690  153.5195 C   0  0  0  0  0  0  0  0  0  0  0  0
  167.9955  141.8753  157.4230 N   0  0  0  0  0  0  0  0  0  0  0  0
  168.3976  143.1684  157.2318 C   0  0  0  0  0  0  0  0  0  0  0  0
  169.6369  143.3686  157.1065 O   0  0  0  0  0  0  0  0  0  0  0  0
  167.5386  144.1932  157.1759 N   0  0  0  0  0  0  0  0  0  0  0  0
  166.2219  144.0018  157.3064 C   0  0  0  0  0  0  0  0  0  0  0  0
  165.3534  145.0631  157.2469 C   0  0  0  0  0  0  0  0  0  0  0  0
  163.9851  144.8526  157.3838 C   0  0  0  0  0  0  0  0  0  0  0  0
  163.5196  143.5549  157.5807 C   0  0  0  0  0  0  0  0  0  0  0  0
  164.4152  142.5137  157.6356 C   0  0  0  0  0  0  0  0  0  0  0  0
  165.7656  142.7124  157.5016 C   0  0  0  0  0  0  0  0  0  0  0  0
  166.6911  141.6624  157.5551 C   0  0  0  0  0  0  0  0  0  0  0  0
  166.2203  140.5003  157.7359 O   0  0  0  0  0  0  0  0  0  0  0  0
  1  2  1  0
  3  2  1  1
  3  4  1  0
  4  5  2  0
  4  6  1  0
  6  7  1  0
  7  8  2  0
  8  9  1  0
  9 10  2  0
 10 11  1  0
 11 12  1  0
 12 13  1  0
 11 14  2  0
  3 15  1  0
 15 16  1  0
 16 17  2  0
 16 18  1  0
 18 19  1  0
 19 20  2  0
 20 21  1  0
 21 22  2  0
 22 23  1  0
 23 24  2  0
 24 25  1  0
 25 26  2  0
 14  7  1  0
 25 15  1  0
 24 19  1  0
M  END
$$$$
