
     RDKit          3D

 23 24  0  0  0  0  0  0  0  0999 V2000
   39.6729   37.5653   24.4838 C   0  0  0  0  0  0  0  0  0  0  0  0
   40.5675   38.1651   25.3687 O   0  0  0  0  0  0  0  0  0  0  0  0
   41.1499   39.3962   25.2018 C   0  0  0  0  0  0  0  0  0  0  0  0
   40.7002   40.2369   24.1731 C   0  0  0  0  0  0  0  0  0  0  0  0
   41.2410   41.4824   23.9835 C   0  0  0  0  0  0  0  0  0  0  0  0
   40.7860   42.3134   22.9550 O   0  0  0  0  0  0  0  0  0  0  0  0
   42.2461   41.9268   24.8137 C   0  0  0  0  0  0  0  0  0  0  0  0
   42.7024   41.1416   25.8106 C   0  0  0  0  0  0  0  0  0  0  0  0
   42.1509   39.8652   26.0040 C   0  0  0  0  0  0  0  0  0  0  0  0
   42.8120   39.0724   26.9937 C   0  0  0  0  0  0  0  0  0  0  0  0
   43.3208   37.8889   26.9358 C   0  0  0  0  0  0  0  0  0  0  0  0
   43.8805   37.0041   27.9102 C   0  0  0  0  0  0  0  0  0  0  0  0
   44.0181   37.3456   29.1006 O   0  0  0  0  0  0  0  0  0  0  0  0
   44.3147   35.6696   27.5633 C   0  0  0  0  0  0  0  0  0  0  0  0
   45.1668   34.9641   28.4200 C   0  0  0  0  0  0  0  0  0  0  0  0
   45.6186   33.7053   28.1572 C   0  0  0  0  0  0  0  0  0  0  0  0
   45.1971   33.1244   26.9797 C   0  0  0  0  0  0  0  0  0  0  0  0
   45.6257   31.8441   26.6608 O   0  0  0  0  0  0  0  0  0  0  0  0
   44.3614   33.7765   26.1072 C   0  0  0  0  0  0  0  0  0  0  0  0
   43.9256   33.1703   24.8867 N   0  0  0  0  0  4  0  0  0  0  0  0
   44.2961   32.0207   24.5963 O   0  0  0  0  0  0  0  0  0  0  0  0
   43.0986   33.8194   24.0053 O   0  0  0  0  0  1  0  0  0  0  0  0
   43.9128   35.0760   26.4082 C   0  0  0  0  0  0  0  0  0  0  0  0
  1  2  1  0
  2  3  1  0
  3  4  2  0
  4  5  1  0
  5  6  1  0
  5  7  2  0
  7  8  1  0
  8  9  2  0
  9 10  1  0
 10 11  2  3
 11 12  1  0
 12 13  2  0
 12 14  1  0
 14 15  2  0
 15 16  1  0
 16 17  2  0
 17 18  1  0
 17 19  1  0
 19 20  1  0
 20 21  2  0
 20 22  1  0
 19 23  2  0
  9  3  1  0
 23 14  1  0
M  CHG  2  20   1  22  -1
M  END
$$$$
