
     RDKit          3D

 28 30  0  0  0  0  0  0  0  0999 V2000
  124.8233  133.6950  148.4151 C   0  0  0  0  0  0  0  0  0  0  0  0
  124.1023  134.7886  148.2481 C   0  0  0  0  0  0  0  0  0  0  0  0
  123.6648  135.5441  149.3572 N   0  0  0  0  0  0  0  0  0  0  0  0
  123.5222  136.8720  149.4558 O   0  0  0  0  0  0  0  0  0  0  0  0
  124.7049  137.5415  149.7218 C   0  0  0  0  0  0  0  0  0  0  0  0
  125.4533  137.8682  148.5602 N   0  0  0  0  0  0  0  0  0  0  0  0
  125.0435  137.3489  147.4180 O   0  0  0  0  0  0  0  0  0  0  0  0
  123.7667  137.6679  147.0407 C   0  0  0  0  0  0  0  0  0  0  0  0
  122.9966  136.4211  146.7406 C   0  0  0  0  0  0  0  0  0  0  0  0
  123.7880  135.1382  146.8046 C   0  0  0  0  0  0  0  0  0  0  0  0
  123.0646  134.0360  146.1350 C   0  0  0  0  0  0  0  0  0  0  0  0
  124.0214  133.8161  145.3185 C   0  0  0  0  0  0  0  0  0  0  0  0
  124.8498  134.8758  145.8743 C   0  0  0  0  0  0  0  0  0  0  0  0
  125.1725  135.8304  144.8203 N   0  0  0  0  0  0  0  0  0  0  0  0
  126.3611  135.4424  144.0806 C   0  0  0  0  0  0  0  0  0  0  0  0
  126.7533  136.2647  143.1321 C   0  0  0  0  0  0  0  0  0  0  0  0
  127.8272  135.8646  142.2415 C   0  0  0  0  0  0  0  0  0  0  0  0
  128.1762  136.6391  141.2521 C   0  0  0  0  0  0  0  0  0  0  0  0
  127.3419  138.1546  140.9690 Cl  0  0  0  0  0  0  0  0  0  0  0  0
  129.2565  136.2956  140.2870 C   0  0  0  0  0  0  0  0  0  0  0  0
  130.5899  136.4120  140.9880 C   0  0  0  0  0  0  0  0  0  0  0  0
  129.2728  137.3136  139.2128 N   0  0  0  0  0  0  0  0  0  0  0  0
  128.4218  137.0768  138.1053 C   0  0  0  0  0  0  0  0  0  0  0  0
  128.4149  137.7347  136.9315 C   0  0  0  0  0  0  0  0  0  0  0  0
  129.3189  138.8192  136.6402 N   0  0  0  0  0  0  0  0  0  0  0  0
  129.8869  139.6195  137.4924 C   0  0  0  0  0  0  0  0  0  0  0  0
  129.6981  139.5548  138.9747 C   0  0  0  0  0  0  0  0  0  0  0  0
  130.1107  138.3304  139.4404 O   0  0  0  0  0  0  0  0  0  0  0  0
  1  2  2  0
  2  3  1  0
  3  4  1  0
  4  5  1  0
  5  6  1  0
  6  7  1  0
  7  8  1  0
  8  9  1  0
  9 10  1  0
 10 11  1  0
 11 12  2  0
 12 13  1  0
 13 14  1  0
 14 15  1  0
 15 16  2  3
 16 17  1  0
 17 18  2  3
 18 19  1  0
 18 20  1  0
 20 21  1  0
 20 22  1  0
 22 23  1  0
 23 24  2  0
 24 25  1  0
 25 26  2  0
 26 27  1  0
 27 28  1  0
 10  2  1  0
 28 22  1  0
 13 10  1  0
M  END
$$$$
