
     RDKit          3D

  5  4  0  0  0  0  0  0  0  0999 V2000
    1.9800    1.2382    2.5216 Cl  0  0  0  0  0  0  0  0  0  0  0  0
    3.7070    1.6619    2.6661 C   0  0  0  0  0  0  0  0  0  0  0  0
    3.8369    3.1351    2.3520 C   0  0  0  0  0  0  0  0  0  0  0  0
    5.2201    3.6614    2.6282 C   0  0  0  0  0  0  0  0  0  0  0  0
    5.1822    4.9949    3.7633 Cl  0  0  0  0  0  0  0  0  0  0  0  0
  1  2  1  0
  2  3  1  0
  3  4  1  0
  4  5  1  0
M  END
$$$$
