
     RDKit          3D

  5  4  0  0  0  0  0  0  0  0999 V2000
    0.2076   23.0816  -64.5023 Cl  0  0  0  0  0  0  0  0  0  0  0  0
    0.9343   23.4000  -62.9043 C   0  0  0  0  0  0  0  0  0  0  0  0
    0.5264   22.2666  -61.9904 C   0  0  0  0  0  0  0  0  0  0  0  0
   -0.4905   22.6929  -60.9654 C   0  0  0  0  0  0  0  0  0  0  0  0
   -1.8745   21.6192  -60.9526 Cl  0  0  0  0  0  0  0  0  0  0  0  0
  1  2  1  0
  2  3  1  0
  3  4  1  0
  4  5  1  0
M  END
$$$$
