
     RDKit          3D

 27 29  0  0  0  0  0  0  0  0999 V2000
  122.7415  148.0817  141.1727 C   0  0  0  0  0  0  0  0  0  0  0  0
  123.3596  146.9493  140.5836 O   0  0  0  0  0  0  0  0  0  0  0  0
  124.0831  146.0942  141.4209 C   0  0  0  0  0  0  0  0  0  0  0  0
  124.3130  146.3795  142.7386 C   0  0  0  0  0  0  0  0  0  0  0  0
  125.0437  145.4848  143.5255 C   0  0  0  0  0  0  0  0  0  0  0  0
  125.5346  144.3238  142.9967 C   0  0  0  0  0  0  0  0  0  0  0  0
  126.3005  143.3489  143.7512 C   0  0  0  0  0  0  0  0  0  0  0  0
  127.0521  142.5504  143.1402 O   0  0  0  0  0  0  0  0  0  0  0  0
  126.2619  143.2275  145.1696 N   0  0  0  0  0  0  0  0  0  0  0  0
  126.9622  142.2486  145.9132 C   0  0  0  0  0  0  0  0  0  0  0  0
  127.3761  141.0296  145.4540 N   0  0  0  0  0  0  0  0  0  0  0  0
  128.0014  140.3926  146.3912 O   0  0  0  0  0  0  0  0  0  0  0  0
  128.0246  141.1292  147.4550 N   0  0  0  0  0  0  0  0  0  0  0  0
  127.3846  142.3078  147.2088 C   0  0  0  0  0  0  0  0  0  0  0  0
  127.2224  143.3976  148.1540 C   0  0  0  0  0  0  0  0  0  0  0  0
  126.5821  144.5696  147.8426 C   0  0  0  0  0  0  0  0  0  0  0  0
  126.4457  145.6046  148.7640 C   0  0  0  0  0  0  0  0  0  0  0  0
  126.9584  145.4919  150.0528 C   0  0  0  0  0  0  0  0  0  0  0  0
  126.8114  146.5331  150.9524 O   0  0  0  0  0  0  0  0  0  0  0  0
  127.1804  146.5779  152.2812 C   0  0  0  0  0  0  0  0  0  0  0  0
  128.6553  147.0114  152.3140 C   0  0  0  0  0  0  0  0  0  0  0  0
  126.4436  147.6947  153.0312 C   0  0  0  0  0  0  0  0  0  0  0  0
  127.6014  144.3189  150.3717 C   0  0  0  0  0  0  0  0  0  0  0  0
  127.7356  143.2878  149.4484 C   0  0  0  0  0  0  0  0  0  0  0  0
  125.2823  144.0724  141.6667 C   0  0  0  0  0  0  0  0  0  0  0  0
  124.5640  144.9313  140.8545 C   0  0  0  0  0  0  0  0  0  0  0  0
  124.2909  144.5259  139.1633 Cl  0  0  0  0  0  0  0  0  0  0  0  0
  1  2  1  0
  2  3  1  0
  3  4  2  0
  4  5  1  0
  5  6  2  0
  6  7  1  0
  7  8  2  0
  7  9  1  0
  9 10  1  0
 10 11  2  0
 11 12  1  0
 12 13  1  0
 13 14  2  0
 14 15  1  0
 15 16  2  0
 16 17  1  0
 17 18  2  0
 18 19  1  0
 19 20  1  0
 20 21  1  0
 20 22  1  0
 18 23  1  0
 23 24  2  0
  6 25  1  0
 25 26  2  0
 26 27  1  0
 26  3  1  0
 14 10  1  0
 24 15  1  0
M  END
$$$$
