
     RDKit          3D

 27 29  0  0  0  0  0  0  0  0999 V2000
  128.2818  143.3638  152.6775 C   0  0  0  0  0  0  0  0  0  0  0  0
  128.0462  144.0001  151.4320 O   0  0  0  0  0  0  0  0  0  0  0  0
  127.9936  143.1948  150.2900 C   0  0  0  0  0  0  0  0  0  0  0  0
  128.1620  141.8384  150.3406 C   0  0  0  0  0  0  0  0  0  0  0  0
  128.0986  141.0865  149.1641 C   0  0  0  0  0  0  0  0  0  0  0  0
  127.8697  141.6879  147.9580 C   0  0  0  0  0  0  0  0  0  0  0  0
  127.7909  140.9732  146.6973 C   0  0  0  0  0  0  0  0  0  0  0  0
  127.2996  141.5467  145.6945 O   0  0  0  0  0  0  0  0  0  0  0  0
  128.2410  139.6354  146.5081 N   0  0  0  0  0  0  0  0  0  0  0  0
  128.4941  139.0416  145.2493 C   0  0  0  0  0  0  0  0  0  0  0  0
  129.4869  139.3910  144.3772 N   0  0  0  0  0  0  0  0  0  0  0  0
  129.4425  138.6330  143.3290 O   0  0  0  0  0  0  0  0  0  0  0  0
  128.4663  137.7935  143.4602 N   0  0  0  0  0  0  0  0  0  0  0  0
  127.8367  138.0072  144.6508 C   0  0  0  0  0  0  0  0  0  0  0  0
  126.7072  137.2506  145.1597 C   0  0  0  0  0  0  0  0  0  0  0  0
  126.3184  137.2792  146.4745 C   0  0  0  0  0  0  0  0  0  0  0  0
  125.2358  136.5382  146.9413 C   0  0  0  0  0  0  0  0  0  0  0  0
  124.4954  135.7294  146.0845 C   0  0  0  0  0  0  0  0  0  0  0  0
  123.4233  135.0015  146.5700 O   0  0  0  0  0  0  0  0  0  0  0  0
  122.4563  134.3201  145.8596 C   0  0  0  0  0  0  0  0  0  0  0  0
  123.0312  132.9260  145.5593 C   0  0  0  0  0  0  0  0  0  0  0  0
  121.2195  134.0389  146.7222 C   0  0  0  0  0  0  0  0  0  0  0  0
  124.8799  135.6964  144.7646 C   0  0  0  0  0  0  0  0  0  0  0  0
  125.9617  136.4379  144.3026 C   0  0  0  0  0  0  0  0  0  0  0  0
  127.7054  143.0548  147.9483 C   0  0  0  0  0  0  0  0  0  0  0  0
  127.7609  143.8344  149.0895 C   0  0  0  0  0  0  0  0  0  0  0  0
  127.5387  145.5774  148.9801 Cl  0  0  0  0  0  0  0  0  0  0  0  0
  1  2  1  0
  2  3  1  0
  3  4  2  0
  4  5  1  0
  5  6  2  0
  6  7  1  0
  7  8  2  0
  7  9  1  0
  9 10  1  0
 10 11  2  0
 11 12  1  0
 12 13  1  0
 13 14  2  0
 14 15  1  0
 15 16  2  0
 16 17  1  0
 17 18  2  0
 18 19  1  0
 19 20  1  0
 20 21  1  0
 20 22  1  0
 18 23  1  0
 23 24  2  0
  6 25  1  0
 25 26  2  0
 26 27  1  0
 26  3  1  0
 14 10  1  0
 24 15  1  0
M  END
$$$$
