
     RDKit          3D

 26 28  0  0  0  0  0  0  0  0999 V2000
    1.4225   -3.8267  -53.3814 C   0  0  0  0  0  0  0  0  0  0  0  0
    0.8328   -4.0299  -54.7544 C   0  0  0  0  0  0  0  0  0  0  0  0
    0.2935   -5.4213  -54.9282 C   0  0  0  0  0  0  0  0  0  0  0  0
   -0.2114   -5.6753  -56.2599 N   0  0  0  0  0  0  0  0  0  0  0  0
   -1.4943   -5.7851  -56.6185 C   0  0  0  0  0  0  0  0  0  0  0  0
   -2.6830   -5.6904  -55.8869 C   0  0  0  0  0  0  0  0  0  0  0  0
   -3.9044   -5.8411  -56.4928 C   0  0  0  0  0  0  0  0  0  0  0  0
   -3.9828   -6.0903  -57.8434 C   0  0  0  0  0  0  0  0  0  0  0  0
   -2.8045   -6.1814  -58.5546 C   0  0  0  0  0  0  0  0  0  0  0  0
   -1.5576   -6.0314  -57.9577 C   0  0  0  0  0  0  0  0  0  0  0  0
   -0.2918   -6.0772  -58.4498 N   0  0  0  0  0  0  0  0  0  0  0  0
   -0.0159   -6.3178  -59.8221 C   0  0  0  0  0  0  0  0  0  0  0  0
    0.3220   -5.0934  -60.6264 C   0  0  1  0  0  0  0  0  0  0  0  0
    1.6072   -4.6123  -60.2712 O   0  0  0  0  0  0  0  0  0  0  0  0
    0.4723   -5.5485  -62.0616 C   0  0  0  0  0  0  0  0  0  0  0  0
   -0.6711   -5.9208  -62.6975 O   0  0  0  0  0  0  0  0  0  0  0  0
   -1.5493   -6.9361  -62.6337 C   0  0  0  0  0  0  0  0  0  0  0  0
   -2.8442   -6.7688  -62.2551 C   0  0  0  0  0  0  0  0  0  0  0  0
   -3.7339   -7.8483  -62.1973 C   0  0  0  0  0  0  0  0  0  0  0  0
   -3.2947   -9.0921  -62.5263 C   0  0  0  0  0  0  0  0  0  0  0  0
   -4.3469  -10.4941  -62.4792 Cl  0  0  0  0  0  0  0  0  0  0  0  0
   -1.9775   -9.2684  -62.9119 C   0  0  0  0  0  0  0  0  0  0  0  0
   -1.1083   -8.2118  -62.9682 C   0  0  0  0  0  0  0  0  0  0  0  0
    0.5389   -8.5058  -63.4627 Cl  0  0  0  0  0  0  0  0  0  0  0  0
    0.4967   -5.8575  -57.3947 C   0  0  0  0  0  0  0  0  0  0  0  0
    1.7755   -5.8217  -57.4423 N   0  0  0  0  0  0  0  0  0  0  0  0
  1  2  1  0
  2  3  1  0
  3  4  1  0
  4  5  1  0
  5  6  2  0
  6  7  1  0
  7  8  2  0
  8  9  1  0
  9 10  2  0
 10 11  1  0
 11 12  1  0
 12 13  1  0
 13 14  1  1
 13 15  1  0
 15 16  1  0
 16 17  1  0
 17 18  2  0
 18 19  1  0
 19 20  2  0
 20 21  1  0
 20 22  1  0
 22 23  2  0
 23 24  1  0
 11 25  1  0
 25 26  2  0
 25  4  1  0
 10  5  1  0
 23 17  1  0
M  END
$$$$
