
     RDKit          3D

 12 12  0  0  0  0  0  0  0  0999 V2000
   22.1469   65.4951   19.7974 Cl  0  0  0  0  0  0  0  0  0  0  0  0
   21.3559   65.3556   18.2473 C   0  0  0  0  0  0  0  0  0  0  0  0
   21.0715   66.4539   17.4925 C   0  0  0  0  0  0  0  0  0  0  0  0
   18.9635   66.0438   17.6176 Cl  0  0  0  0  0  0  0  0  0  0  0  0
   20.7981   67.5093   16.7672 C   0  0  0  0  0  0  0  0  0  0  0  0
   21.9127   68.1747   16.0373 C   0  0  0  0  0  0  0  0  0  0  0  0
   21.7847   69.3627   15.4998 C   0  0  0  0  0  0  0  0  0  0  0  0
   20.6643   70.2009   15.6370 N   0  0  0  0  0  0  0  0  0  0  0  0
   20.5578   71.4930   15.0345 C   0  0  0  0  0  0  0  0  0  0  0  0
   21.6942   71.8605   14.2750 N   0  0  0  0  0  0  0  0  0  0  0  0
   22.7246   71.1357   14.1251 C   0  0  0  0  0  0  0  0  0  0  0  0
   22.8410   69.8830   14.7040 O   0  0  0  0  0  0  0  0  0  0  0  0
  1  2  1  0
  2  3  1  0
  3  4  1  0
  3  5  2  3
  5  6  1  0
  6  7  2  3
  7  8  1  0
  8  9  1  0
  9 10  1  0
 10 11  2  0
 11 12  1  0
 12  7  1  0
M  END
$$$$
