
     RDKit          3D

 22 23  0  0  0  0  0  0  0  0999 V2000
  131.2894  139.2879  141.6644 C   0  0  0  0  0  0  0  0  0  0  0  0
  130.7947  138.1676  142.5516 C   0  0  0  0  0  0  0  0  0  0  0  0
  129.6823  137.4605  141.8935 C   0  0  0  0  0  0  0  0  0  0  0  0
  129.9273  136.6478  140.8225 N   0  0  0  0  0  0  0  0  0  0  0  0
  128.9672  135.9860  140.1700 C   0  0  0  0  0  0  0  0  0  0  0  0
  129.2434  135.1386  139.0488 N   0  0  0  0  0  0  0  0  0  0  0  0
  127.6990  136.1242  140.5847 N   0  0  0  0  0  0  0  0  0  0  0  0
  127.4107  136.9126  141.6338 C   0  0  0  0  0  0  0  0  0  0  0  0
  126.0695  137.0635  142.0788 N   0  0  0  0  0  0  0  0  0  0  0  0
  128.3982  137.6193  142.3380 C   0  0  0  0  0  0  0  0  0  0  0  0
  128.0117  138.4427  143.4707 C   0  0  0  0  0  0  0  0  0  0  0  0
  128.3399  139.8012  143.4561 C   0  0  0  0  0  0  0  0  0  0  0  0
  128.0303  140.6300  144.5100 C   0  0  0  0  0  0  0  0  0  0  0  0
  127.3817  140.1698  145.6352 C   0  0  0  0  0  0  0  0  0  0  0  0
  127.0015  141.2475  146.9798 Cl  0  0  0  0  0  0  0  0  0  0  0  0
  127.0510  138.8321  145.6641 C   0  0  0  0  0  0  0  0  0  0  0  0
  126.4015  138.3290  146.8010 N   0  0  0  0  0  0  0  0  0  0  0  0
  126.1889  137.0898  146.9960 C   0  0  0  0  0  0  0  0  0  0  0  0
  125.4564  136.6252  148.1001 N   0  0  0  0  0  0  0  0  0  0  0  0
  124.0332  136.8395  148.1935 C   0  0  0  0  0  0  0  0  0  0  0  0
  126.1107  135.9119  149.1735 C   0  0  0  0  0  0  0  0  0  0  0  0
  127.3649  137.9983  144.5981 C   0  0  0  0  0  0  0  0  0  0  0  0
  1  2  1  0
  2  3  1  0
  3  4  2  0
  4  5  1  0
  5  6  1  0
  5  7  2  0
  7  8  1  0
  8  9  1  0
  8 10  2  0
 10 11  1  0
 11 12  2  0
 12 13  1  0
 13 14  2  0
 14 15  1  0
 14 16  1  0
 16 17  1  0
 17 18  2  0
 18 19  1  0
 19 20  1  0
 19 21  1  0
 16 22  2  0
 10  3  1  0
 22 11  1  0
M  END
$$$$
