
     RDKit          3D

 22 23  0  0  0  0  0  0  0  0999 V2000
  114.1291  130.7723  120.2978 C   0  0  0  0  0  0  0  0  0  0  0  0
  114.9385  131.8066  121.0475 C   0  0  0  0  0  0  0  0  0  0  0  0
  115.1752  131.3533  122.4292 C   0  0  0  0  0  0  0  0  0  0  0  0
  115.7229  130.1228  122.6603 N   0  0  0  0  0  0  0  0  0  0  0  0
  115.9541  129.6420  123.8854 C   0  0  0  0  0  0  0  0  0  0  0  0
  116.5289  128.3491  124.1081 N   0  0  0  0  0  0  0  0  0  0  0  0
  115.6338  130.4028  124.9428 N   0  0  0  0  0  0  0  0  0  0  0  0
  115.0932  131.6198  124.7636 C   0  0  0  0  0  0  0  0  0  0  0  0
  114.7517  132.4314  125.8792 N   0  0  0  0  0  0  0  0  0  0  0  0
  114.8395  132.1504  123.4892 C   0  0  0  0  0  0  0  0  0  0  0  0
  114.2644  133.4795  123.3739 C   0  0  0  0  0  0  0  0  0  0  0  0
  114.8448  134.5269  124.0946 C   0  0  0  0  0  0  0  0  0  0  0  0
  114.3312  135.8029  124.0538 C   0  0  0  0  0  0  0  0  0  0  0  0
  113.2199  136.1193  123.3032 C   0  0  0  0  0  0  0  0  0  0  0  0
  112.5717  137.7603  123.2714 Cl  0  0  0  0  0  0  0  0  0  0  0  0
  112.6366  135.0968  122.5864 C   0  0  0  0  0  0  0  0  0  0  0  0
  111.4958  135.3830  121.8222 N   0  0  0  0  0  0  0  0  0  0  0  0
  110.8645  134.5065  121.1496 C   0  0  0  0  0  0  0  0  0  0  0  0
  109.7954  134.8446  120.3046 N   0  0  0  0  0  0  0  0  0  0  0  0
  109.3857  136.2169  120.1342 C   0  0  0  0  0  0  0  0  0  0  0  0
  109.0783  133.8231  119.5757 C   0  0  0  0  0  0  0  0  0  0  0  0
  113.1580  133.8098  122.6297 C   0  0  0  0  0  0  0  0  0  0  0  0
  1  2  1  0
  2  3  1  0
  3  4  2  0
  4  5  1  0
  5  6  1  0
  5  7  2  0
  7  8  1  0
  8  9  1  0
  8 10  2  0
 10 11  1  0
 11 12  2  0
 12 13  1  0
 13 14  2  0
 14 15  1  0
 14 16  1  0
 16 17  1  0
 17 18  2  0
 18 19  1  0
 19 20  1  0
 19 21  1  0
 16 22  2  0
 10  3  1  0
 22 11  1  0
M  END
$$$$
