
     RDKit          3D

 27 29  0  0  0  0  0  0  0  0999 V2000
    7.8893   29.5417   21.8692 O   0  0  0  0  0  0  0  0  0  0  0  0
    8.8681   30.3302   21.8899 C   0  0  0  0  0  0  0  0  0  0  0  0
    9.9894   29.9672   22.6779 N   0  0  0  0  0  0  0  0  0  0  0  0
   10.4213   28.5991   22.8649 C   0  0  0  0  0  0  0  0  0  0  0  0
   11.7218   28.4895   23.6449 C   0  0  0  0  0  0  0  0  0  0  0  0
   12.7200   29.3630   22.9901 C   0  0  0  0  0  0  0  0  0  0  0  0
   14.0309   29.4599   23.3291 N   0  0  0  0  0  0  0  0  0  0  0  0
   14.6618   30.3037   22.5074 C   0  0  0  0  0  0  0  0  0  0  0  0
   15.9758   30.7540   22.4039 C   0  0  0  0  0  0  0  0  0  0  0  0
   16.3451   31.6437   21.4276 C   0  0  0  0  0  0  0  0  0  0  0  0
   15.4341   32.1142   20.5276 C   0  0  0  0  0  0  0  0  0  0  0  0
   14.1189   31.6748   20.6173 C   0  0  0  0  0  0  0  0  0  0  0  0
   13.7315   30.7737   21.6025 C   0  0  0  0  0  0  0  0  0  0  0  0
   12.5541   30.1733   21.9353 N   0  0  0  0  0  0  0  0  0  0  0  0
   11.3259   30.3964   21.1892 C   0  0  0  0  0  0  0  0  0  0  0  0
   11.0852   29.4229   20.1106 C   0  0  0  0  0  0  0  0  0  0  0  0
    9.7525   29.1833   19.7387 C   0  0  0  0  0  0  0  0  0  0  0  0
    9.4369   28.2765   18.7520 C   0  0  0  0  0  0  0  0  0  0  0  0
   10.4732   27.6016   18.1296 C   0  0  0  0  0  0  0  0  0  0  0  0
   11.7888   27.8171   18.4733 C   0  0  0  0  0  0  0  0  0  0  0  0
   12.0970   28.7446   19.4818 C   0  0  0  0  0  0  0  0  0  0  0  0
    8.8471   31.5602   21.1369 N   0  0  0  0  0  0  0  0  0  0  0  0
    7.8194   31.6573   20.1226 C   0  0  0  0  0  0  0  0  0  0  0  0
    7.8621   32.9230   19.3368 C   0  0  0  0  0  0  0  0  0  0  0  0
    7.9979   34.1668   20.1471 C   0  0  0  0  0  0  0  0  0  0  0  0
    9.2802   34.5958   20.3028 F   0  0  0  0  0  0  0  0  0  0  0  0
    7.2994   35.1810   19.5019 F   0  0  0  0  0  0  0  0  0  0  0  0
  1  2  2  0
  2  3  1  0
  3  4  1  0
  4  5  1  0
  5  6  1  0
  6  7  2  0
  7  8  1  0
  8  9  2  0
  9 10  1  0
 10 11  2  0
 11 12  1  0
 12 13  2  0
 13 14  1  0
 14 15  1  0
 15 16  1  0
 16 17  2  0
 17 18  1  0
 18 19  2  0
 19 20  1  0
 20 21  2  0
  2 22  1  0
 22 23  1  0
 23 24  1  0
 24 25  1  0
 25 26  1  0
 25 27  1  0
 14  6  1  0
 21 16  1  0
 13  8  1  0
M  END
$$$$
