
     RDKit          3D

 17 17  0  0  0  0  0  0  0  0999 V2000
  145.8728  152.2395  160.5877 O   0  0  0  0  0  0  0  0  0  0  0  0
  145.8395  153.5079  161.1684 C   0  0  0  0  0  0  0  0  0  0  0  0
  147.2432  153.8936  161.5034 C   0  0  0  0  0  0  0  0  0  0  0  0
  147.6147  153.5316  162.8577 N   0  0  0  0  0  0  0  0  0  0  0  0
  148.9549  153.6629  163.2786 C   0  0  0  0  0  0  0  0  0  0  0  0
  149.2851  153.1097  164.4098 N   0  0  0  0  0  0  0  0  0  0  0  0
  150.4738  153.5311  165.0685 C   0  0  0  0  0  3  0  0  0  0  0  0
  151.5837  153.6728  164.2807 N   0  0  0  0  0  0  0  0  0  0  0  0
  152.5506  154.6329  164.6322 C   0  0  0  0  0  0  0  0  0  0  0  0
  153.5320  153.9943  165.6471 C   0  0  0  0  0  0  0  0  0  0  0  0
  152.7042  153.0771  166.4793 C   0  0  0  0  0  0  0  0  0  0  0  0
  153.4787  152.3309  167.4700 C   0  0  0  0  0  0  0  0  0  0  0  0
  153.2613  152.1512  168.7459 C   0  0  0  0  0  0  0  0  0  0  0  0
  151.9709  151.0295  169.2801 Cl  0  0  0  0  0  0  0  0  0  0  0  0
  154.1577  152.9455  170.0272 Cl  0  0  0  0  0  0  0  0  0  0  0  0
  151.6054  153.9134  167.1231 C   0  0  0  0  0  0  0  0  0  0  0  0
  150.3325  153.7467  166.4704 N   0  0  0  0  0  0  0  0  0  0  0  0
  1  2  1  0
  2  3  1  0
  3  4  1  0
  4  5  1  0
  5  6  2  3
  6  7  1  0
  7  8  1  0
  8  9  1  0
  9 10  1  0
 10 11  1  0
 11 12  1  0
 12 13  2  3
 13 14  1  0
 13 15  1  0
 11 16  1  0
 16 17  1  0
 17  7  1  0
M  CHG  1   7   1
M  END
$$$$
