
     RDKit          3D

 25 27  0  0  0  0  0  0  0  0999 V2000
   -7.7040   -5.7883  -59.1147 C   0  0  0  0  0  0  0  0  0  0  0  0
   -6.8358   -6.8033  -59.5820 O   0  0  0  0  0  0  0  0  0  0  0  0
   -5.5833   -6.4811  -60.0545 C   0  0  0  0  0  0  0  0  0  0  0  0
   -5.1155   -5.1780  -60.0836 C   0  0  0  0  0  0  0  0  0  0  0  0
   -3.8370   -4.9069  -60.5731 C   0  0  0  0  0  0  0  0  0  0  0  0
   -3.0216   -5.9145  -61.0323 C   0  0  0  0  0  0  0  0  0  0  0  0
   -1.6868   -5.6723  -61.5484 C   0  0  0  0  0  0  0  0  0  0  0  0
   -1.3328   -5.3774  -62.8258 N   0  0  0  0  0  0  0  0  0  0  0  0
   -0.0583   -5.2337  -62.8857 O   0  0  0  0  0  0  0  0  0  0  0  0
    0.4547   -5.4236  -61.6851 N   0  0  0  0  0  0  0  0  0  0  0  0
   -0.5365   -5.6994  -60.8271 C   0  0  0  0  0  0  0  0  0  0  0  0
   -0.2959   -5.9568  -59.4315 N   0  0  0  0  0  0  0  0  0  0  0  0
    0.4975   -5.1026  -58.6450 C   0  0  0  0  0  0  0  0  0  0  0  0
    1.1321   -4.2155  -59.2933 O   0  0  0  0  0  0  0  0  0  0  0  0
    0.6713   -5.1178  -57.2055 C   0  0  0  0  0  0  0  0  0  0  0  0
    1.5533   -4.1959  -56.6129 C   0  0  0  0  0  0  0  0  0  0  0  0
    1.7546   -4.1668  -55.2586 C   0  0  0  0  0  0  0  0  0  0  0  0
    1.1215   -5.0220  -54.3855 C   0  0  0  0  0  0  0  0  0  0  0  0
    0.2587   -5.9270  -54.9439 C   0  0  0  0  0  0  0  0  0  0  0  0
    0.0403   -5.9705  -56.3323 C   0  0  0  0  0  0  0  0  0  0  0  0
   -0.8495   -6.9138  -56.8420 O   0  0  0  0  0  0  0  0  0  0  0  0
   -1.6330   -7.6711  -55.9453 C   0  0  0  0  0  0  0  0  0  0  0  0
   -3.4763   -7.2116  -61.0078 C   0  0  0  0  0  0  0  0  0  0  0  0
   -4.7336   -7.4669  -60.5251 C   0  0  0  0  0  0  0  0  0  0  0  0
   -5.2056   -8.8977  -60.5101 C   0  0  0  0  0  0  0  0  0  0  0  0
  1  2  1  0
  2  3  1  0
  3  4  2  0
  4  5  1  0
  5  6  2  0
  6  7  1  0
  7  8  2  0
  8  9  1  0
  9 10  1  0
 10 11  2  0
 11 12  1  0
 12 13  1  0
 13 14  2  0
 13 15  1  0
 15 16  2  0
 16 17  1  0
 17 18  2  0
 18 19  1  0
 19 20  2  0
 20 21  1  0
 21 22  1  0
  6 23  1  0
 23 24  2  0
 24 25  1  0
 24  3  1  0
 11  7  1  0
 20 15  1  0
M  END
$$$$
