
     RDKit          3D

 23 25  0  0  0  0  0  0  0  0999 V2000
  149.1680  150.4277  145.2413 O   0  0  0  0  0  0  0  0  0  0  0  0
  150.3493  150.0486  145.0395 C   0  0  0  0  0  0  0  0  0  0  0  0
  150.6338  148.9865  144.1467 N   0  0  0  0  0  0  0  0  0  0  0  0
  149.5517  148.3973  143.4367 C   0  0  0  0  0  0  0  0  0  0  0  0
  148.5860  147.7091  144.1171 C   0  0  0  0  0  0  0  0  0  0  0  0
  147.5118  147.1193  143.4522 C   0  0  0  0  0  0  0  0  0  0  0  0
  146.2735  146.2343  144.3453 Cl  0  0  0  0  0  0  0  0  0  0  0  0
  147.4485  147.2504  142.0704 C   0  0  0  0  0  0  0  0  0  0  0  0
  148.4038  147.9363  141.3563 C   0  0  0  0  0  0  0  0  0  0  0  0
  149.4530  148.5053  142.0624 C   0  0  0  0  0  0  0  0  0  0  0  0
  150.6723  149.3752  141.1955 Cl  0  0  0  0  0  0  0  0  0  0  0  0
  151.4217  150.7467  145.7624 C   0  0  0  0  0  0  0  0  0  0  0  0
  151.2190  151.7179  146.7310 C   0  0  0  0  0  0  0  0  0  0  0  0
  152.4668  152.0953  147.1365 C   0  0  0  0  0  0  0  0  0  0  0  0
  153.3936  151.3695  146.4294 C   0  0  0  0  0  0  0  0  0  0  0  0
  154.8310  151.4919  146.5834 C   0  0  0  0  0  0  0  0  0  0  0  0
  155.6565  150.7154  145.8066 C   0  0  0  0  0  0  0  0  0  0  0  0
  157.0346  150.8264  145.9478 C   0  0  0  0  0  0  0  0  0  0  0  0
  157.5858  151.6926  146.8439 C   0  0  0  0  0  0  0  0  0  0  0  0
  156.7753  152.4878  147.6401 C   0  0  0  0  0  0  0  0  0  0  0  0
  157.4801  153.6097  148.8007 Cl  0  0  0  0  0  0  0  0  0  0  0  0
  155.4004  152.3701  147.4922 C   0  0  0  0  0  0  0  0  0  0  0  0
  152.7132  150.5804  145.6239 O   0  0  0  0  0  0  0  0  0  0  0  0
  1  2  2  0
  2  3  1  0
  3  4  1  0
  4  5  2  0
  5  6  1  0
  6  7  1  0
  6  8  2  0
  8  9  1  0
  9 10  2  0
 10 11  1  0
  2 12  1  0
 12 13  2  0
 13 14  1  0
 14 15  2  0
 15 16  1  0
 16 17  2  0
 17 18  1  0
 18 19  2  0
 19 20  1  0
 20 21  1  0
 20 22  2  0
 15 23  1  0
 10  4  1  0
 23 12  1  0
 22 16  1  0
M  END
$$$$
