
     RDKit          3D

 35 37  0  0  0  0  0  0  0  0999 V2000
   -3.9014   -8.7285  -55.4028 O   0  0  0  0  0  0  0  0  0  0  0  0
   -3.4088   -9.1148  -56.5883 C   0  0  0  0  0  0  0  0  0  0  0  0
   -2.6824   -8.0917  -57.4306 C   0  0  0  0  0  0  0  0  0  0  0  0
   -1.8433   -7.2749  -56.5261 N   0  0  0  0  0  0  0  0  0  0  0  0
   -1.0242   -6.2523  -56.9857 C   0  0  0  0  0  0  0  0  0  0  0  0
   -1.0234   -5.9338  -58.3305 N   0  0  0  0  0  0  0  0  0  0  0  0
   -0.2185   -5.0284  -58.8167 C   0  0  0  0  0  0  0  0  0  0  0  0
   -0.2316   -4.6038  -60.1538 N   0  0  0  0  0  0  0  0  0  0  0  0
   -1.2833   -5.3202  -60.9616 C   0  0  0  0  0  0  0  0  0  0  0  0
   -0.6842   -5.9599  -62.1146 C   0  0  0  0  0  0  0  0  0  0  0  0
   -0.8641   -6.6337  -63.1251 C   0  0  0  0  0  0  0  0  0  0  0  0
    0.0860   -7.0287  -64.4293 Cl  0  0  0  0  0  0  0  0  0  0  0  0
   -2.1708   -7.5912  -62.8880 C   0  0  0  0  0  0  0  0  0  0  0  0
   -2.7535   -7.0442  -61.9187 C   0  0  0  0  0  0  0  0  0  0  0  0
   -3.9121   -7.3696  -61.2132 C   0  0  0  0  0  0  0  0  0  0  0  0
   -4.9776   -6.7846  -61.6593 C   0  0  0  0  0  0  0  0  0  0  0  0
   -5.9892   -5.7096  -61.4304 C   0  0  0  0  0  0  0  0  0  0  0  0
   -5.9839   -4.9743  -60.1327 C   0  0  0  0  0  0  0  0  0  0  0  0
   -7.1431   -4.1266  -59.7617 C   0  0  0  0  0  0  0  0  0  0  0  0
   -7.6085   -4.2811  -58.3012 C   0  0  0  0  0  0  0  0  0  0  0  0
   -7.6663   -3.0294  -57.6376 O   0  0  0  0  0  0  0  0  0  0  0  0
   -8.7613   -2.3372  -58.1033 C   0  0  0  0  0  0  0  0  0  0  0  0
   -8.8686   -0.7421  -57.2149 Cl  0  0  0  0  0  0  0  0  0  0  0  0
   -3.8342   -8.8693  -60.3398 C   0  0  0  0  0  0  0  0  0  0  0  0
   -3.4014   -9.2505  -61.3792 C   0  0  0  0  0  0  0  0  0  0  0  0
   -3.0529   -9.5482  -62.1751 C   0  0  0  0  0  0  0  0  0  0  0  0
   -2.4159  -10.1146  -63.6117 C   0  0  0  0  0  0  0  0  0  0  0  0
   -1.9293   -8.7346  -63.8677 C   0  0  0  0  0  0  0  0  0  0  0  0
    0.6599   -4.3920  -57.9861 N   0  0  0  0  0  0  0  0  0  0  0  0
    0.7360   -4.6281  -56.6658 C   0  0  0  0  0  0  0  0  0  0  0  0
    1.5539   -4.0035  -55.7577 C   0  0  0  0  0  0  0  0  0  0  0  0
    1.6055   -4.2145  -54.4271 C   0  0  0  0  0  0  0  0  0  0  0  0
    0.7230   -5.1449  -53.9210 C   0  0  0  0  0  0  0  0  0  0  0  0
   -0.1341   -5.8244  -54.8128 C   0  0  0  0  0  0  0  0  0  0  0  0
   -0.1321   -5.5860  -56.1124 C   0  0  0  0  0  0  0  0  0  0  0  0
  1  2  1  0
  2  3  1  0
  3  4  1  0
  4  5  1  0
  5  6  2  0
  6  7  1  0
  7  8  1  0
  8  9  1  0
  9 10  1  0
 10 11  2  3
 11 12  1  0
 11 13  1  0
 13 14  2  0
 14 15  2  0
 15 16  1  0
 16 17  1  0
 17 18  1  0
 18 19  1  0
 19 20  1  0
 20 21  1  0
 21 22  1  0
 22 23  1  0
 15 24  1  0
 24 25  1  0
 25 26  3  0
 26 27  1  0
 27 28  2  0
  7 29  2  0
 29 30  1  0
 30 31  2  0
 31 32  1  0
 32 33  2  0
 33 34  1  0
 34 35  2  0
 35  5  1  0
 28 13  1  0
 35 30  1  0
M  END
$$$$
