
     RDKit          3D

 23 25  0  0  0  0  0  0  0  0999 V2000
  151.6773  148.9395  142.7833 N   0  0  0  0  0  0  0  0  0  0  0  0
  152.9431  149.4690  142.8381 O   0  0  0  0  0  0  0  0  0  0  0  0
  152.7673  150.8506  142.9031 C   0  0  0  0  0  0  0  0  0  0  0  0
  153.6739  151.4809  143.8000 N   0  0  0  0  0  0  0  0  0  0  0  0
  153.6195  151.0171  145.1364 C   0  0  0  0  0  0  0  0  0  0  0  0
  152.4854  151.6211  145.9692 C   0  0  0  0  0  0  0  0  0  0  0  0
  153.3356  152.8349  147.0311 S   0  0  0  0  0  0  0  0  0  0  0  0
  153.3936  154.3788  146.2048 N   0  0  0  0  0  0  0  0  0  0  0  0
  153.6329  154.6090  144.8140 C   0  0  0  0  0  0  0  0  0  0  0  0
  152.7151  155.4795  144.1711 C   0  0  0  0  0  0  0  0  0  0  0  0
  152.7874  155.7982  142.8452 C   0  0  0  0  0  0  0  0  0  0  0  0
  151.6510  156.8677  142.0691 Cl  0  0  0  0  0  0  0  0  0  0  0  0
  153.8035  155.2417  142.1127 C   0  0  0  0  0  0  0  0  0  0  0  0
  153.9574  155.6109  140.3826 Cl  0  0  0  0  0  0  0  0  0  0  0  0
  154.6965  154.4026  142.7189 C   0  0  0  0  0  0  0  0  0  0  0  0
  154.6550  154.0500  144.0864 C   0  0  0  0  0  0  0  0  0  0  0  0
  155.7011  153.2139  144.5465 N   0  0  0  0  0  0  0  0  0  0  0  0
  155.8033  152.2603  145.5735 C   0  0  0  0  0  0  0  0  0  0  0  0
  156.9706  152.3506  146.3776 C   0  0  0  0  0  0  0  0  0  0  0  0
  157.2653  151.5002  147.4062 C   0  0  0  0  0  0  0  0  0  0  0  0
  156.3555  150.4979  147.6603 C   0  0  0  0  0  0  0  0  0  0  0  0
  155.2156  150.3838  146.8999 C   0  0  0  0  0  0  0  0  0  0  0  0
  154.9155  151.2487  145.8544 C   0  0  0  0  0  0  0  0  0  0  0  0
  1  2  1  0
  2  3  1  0
  3  4  1  0
  4  5  1  0
  5  6  1  0
  6  7  1  0
  7  8  1  0
  8  9  1  0
  9 10  2  0
 10 11  1  0
 11 12  1  0
 11 13  2  0
 13 14  1  0
 13 15  1  0
 15 16  2  0
 16 17  1  0
 17 18  1  0
 18 19  2  0
 19 20  1  0
 20 21  2  0
 21 22  1  0
 22 23  2  0
 23  5  1  0
 16  9  1  0
 23 18  1  0
M  END
$$$$
