
     RDKit          3D

 23 25  0  0  0  0  0  0  0  0999 V2000
  150.9944  159.8568  155.6982 N   0  0  0  0  0  0  0  0  0  0  0  0
  150.1610  159.5616  156.7488 O   0  0  0  0  0  0  0  0  0  0  0  0
  151.0006  159.3260  157.8366 C   0  0  0  0  0  0  0  0  0  0  0  0
  151.0167  157.9608  158.2361 N   0  0  0  0  0  0  0  0  0  0  0  0
  149.9219  157.1871  157.7815 C   0  0  0  0  0  0  0  0  0  0  0  0
  148.6476  157.3439  158.6159 C   0  0  0  0  0  0  0  0  0  0  0  0
  148.5871  155.8072  159.5951 S   0  0  0  0  0  0  0  0  0  0  0  0
  149.4592  156.0483  161.0955 N   0  0  0  0  0  0  0  0  0  0  0  0
  150.6821  156.7655  161.2815 C   0  0  0  0  0  0  0  0  0  0  0  0
  150.6840  157.7066  162.3435 C   0  0  0  0  0  0  0  0  0  0  0  0
  151.7620  158.4857  162.6526 C   0  0  0  0  0  0  0  0  0  0  0  0
  151.7485  159.6390  163.9592 Cl  0  0  0  0  0  0  0  0  0  0  0  0
  152.8914  158.3388  161.8900 C   0  0  0  0  0  0  0  0  0  0  0  0
  154.3305  159.3205  162.2345 Cl  0  0  0  0  0  0  0  0  0  0  0  0
  152.9050  157.4347  160.8645 C   0  0  0  0  0  0  0  0  0  0  0  0
  151.8113  156.6115  160.5149 C   0  0  0  0  0  0  0  0  0  0  0  0
  152.0340  155.6940  159.4596 N   0  0  0  0  0  0  0  0  0  0  0  0
  151.2017  155.0998  158.4960 C   0  0  0  0  0  0  0  0  0  0  0  0
  151.3800  153.7027  158.3120 C   0  0  0  0  0  0  0  0  0  0  0  0
  150.6870  152.9503  157.4056 C   0  0  0  0  0  0  0  0  0  0  0  0
  149.7606  153.6127  156.6311 C   0  0  0  0  0  0  0  0  0  0  0  0
  149.5644  154.9649  156.7853 C   0  0  0  0  0  0  0  0  0  0  0  0
  150.2684  155.7300  157.7072 C   0  0  0  0  0  0  0  0  0  0  0  0
  1  2  1  0
  2  3  1  0
  3  4  1  0
  4  5  1  0
  5  6  1  0
  6  7  1  0
  7  8  1  0
  8  9  1  0
  9 10  2  0
 10 11  1  0
 11 12  1  0
 11 13  2  0
 13 14  1  0
 13 15  1  0
 15 16  2  0
 16 17  1  0
 17 18  1  0
 18 19  2  0
 19 20  1  0
 20 21  2  0
 21 22  1  0
 22 23  2  0
 23  5  1  0
 16  9  1  0
 23 18  1  0
M  END
$$$$
