
     RDKit          3D

 20 20  0  0  0  0  0  0  0  0999 V2000
  126.8328  141.5625  136.3961 Cl  0  0  0  0  0  0  0  0  0  0  0  0
  128.3459  140.9147  137.0652 C   0  0  0  0  0  0  0  0  0  0  0  0
  128.2971  139.8785  137.8631 C   0  0  0  0  0  0  0  0  0  0  0  0
  129.5435  139.3066  138.4381 C   0  0  0  0  0  0  0  0  0  0  0  0
  129.0734  138.3590  139.5126 C   0  0  0  0  0  0  0  0  0  0  0  0
  128.7781  138.7702  140.6839 N   0  0  0  0  0  0  0  0  0  0  0  0
  128.3380  137.9174  141.7173 C   0  0  0  0  0  0  0  0  0  0  0  0
  128.1208  138.3871  142.9707 C   0  0  0  0  0  0  0  0  0  0  0  0
  127.9241  139.7745  143.2286 C   0  0  0  0  0  0  0  0  0  0  0  0
  127.7557  140.2928  144.4053 C   0  0  0  0  0  0  0  0  0  0  0  0
  127.5604  141.7094  144.6603 C   0  0  0  0  0  0  0  0  0  0  0  0
  127.1845  142.0069  146.0968 C   0  0  0  0  0  0  0  0  0  0  0  0
  126.9743  143.4985  146.2701 C   0  0  0  0  0  0  0  0  0  0  0  0
  126.6611  143.8373  147.5822 O   0  0  0  0  0  0  0  0  0  0  0  0
  127.4834  144.2059  148.5942 C   0  0  0  0  0  0  0  0  0  0  0  0
  127.1635  144.9812  149.5959 C   0  0  0  0  0  0  0  0  0  0  0  0
  128.3055  145.2310  150.9041 Cl  0  0  0  0  0  0  0  0  0  0  0  0
  128.1256  136.4762  141.4723 C   0  0  0  0  0  0  0  0  0  0  0  0
  128.4995  136.1152  140.1067 C   0  0  0  0  0  0  0  0  0  0  0  0
  128.9176  136.9606  139.2455 N   0  0  0  0  0  0  0  0  0  0  0  0
  1  2  1  0
  2  3  2  3
  3  4  1  0
  4  5  1  0
  5  6  2  0
  6  7  1  0
  7  8  2  3
  8  9  1  0
  9 10  2  3
 10 11  1  0
 11 12  1  0
 12 13  1  0
 13 14  1  0
 14 15  1  0
 15 16  2  3
 16 17  1  0
  7 18  1  0
 18 19  1  0
 19 20  2  0
 20  5  1  0
M  END
$$$$
