
     RDKit          3D

 20 20  0  0  0  0  0  0  0  0999 V2000
  127.8797  142.2994  136.8422 Cl  0  0  0  0  0  0  0  0  0  0  0  0
  126.9658  140.9093  137.4659 C   0  0  0  0  0  0  0  0  0  0  0  0
  127.5788  140.0286  138.2151 C   0  0  0  0  0  0  0  0  0  0  0  0
  126.8505  138.8428  138.7392 C   0  0  0  0  0  0  0  0  0  0  0  0
  127.7290  138.3063  139.8410 C   0  0  0  0  0  0  0  0  0  0  0  0
  127.6752  138.7750  141.0266 N   0  0  0  0  0  0  0  0  0  0  0  0
  128.4808  138.3040  142.0841 C   0  0  0  0  0  0  0  0  0  0  0  0
  128.4512  138.8929  143.3053 C   0  0  0  0  0  0  0  0  0  0  0  0
  127.8329  140.1596  143.5129 C   0  0  0  0  0  0  0  0  0  0  0  0
  127.8028  140.7930  144.6441 C   0  0  0  0  0  0  0  0  0  0  0  0
  127.0497  142.0115  144.8852 C   0  0  0  0  0  0  0  0  0  0  0  0
  127.4552  142.7159  146.1630 C   0  0  0  0  0  0  0  0  0  0  0  0
  126.6081  143.9595  146.3502 C   0  0  0  0  0  0  0  0  0  0  0  0
  127.0676  144.7578  147.3924 O   0  0  0  0  0  0  0  0  0  0  0  0
  127.2694  144.4396  148.6940 C   0  0  0  0  0  0  0  0  0  0  0  0
  127.7577  145.2342  149.6088 C   0  0  0  0  0  0  0  0  0  0  0  0
  128.0037  144.6376  151.2403 Cl  0  0  0  0  0  0  0  0  0  0  0  0
  129.4047  137.1687  141.8859 C   0  0  0  0  0  0  0  0  0  0  0  0
  129.3906  136.7168  140.4965 C   0  0  0  0  0  0  0  0  0  0  0  0
  128.6410  137.2291  139.5981 N   0  0  0  0  0  0  0  0  0  0  0  0
  1  2  1  0
  2  3  2  3
  3  4  1  0
  4  5  1  0
  5  6  2  0
  6  7  1  0
  7  8  2  3
  8  9  1  0
  9 10  2  3
 10 11  1  0
 11 12  1  0
 12 13  1  0
 13 14  1  0
 14 15  1  0
 15 16  2  3
 16 17  1  0
  7 18  1  0
 18 19  1  0
 19 20  2  0
 20  5  1  0
M  END
$$$$
