
     RDKit          3D

 19 19  0  0  0  0  0  0  0  0999 V2000
   45.7686   26.8444   23.7811 C   0  0  0  0  0  0  0  0  0  0  0  0
   45.9016   26.7595   25.2442 C   0  0  0  0  0  0  0  0  0  0  0  0
   45.7280   25.1875   25.9995 Cl  0  0  0  0  0  0  0  0  0  0  0  0
   46.1439   27.8012   26.0172 C   0  0  0  0  0  0  0  0  0  0  0  0
   46.2752   29.1443   25.4762 C   0  0  0  0  0  0  0  0  0  0  0  0
   46.4091   30.1767   26.2874 C   0  0  0  0  0  0  0  0  0  0  0  0
   47.6326   30.5092   26.9137 N   0  0  0  0  0  0  0  0  0  0  0  0
   47.7074   31.5981   27.8168 C   0  0  0  0  0  0  0  0  0  0  0  0
   47.3295   31.2769   29.2013 N   0  0  0  0  0  0  0  0  0  0  0  0
   45.6105   31.0353   29.1942 S   0  0  0  0  0  1  0  0  0  0  0  0
   48.9961   32.3496   27.8518 C   0  0  0  0  0  0  0  0  0  0  0  0
   50.1852   32.0315   28.3256 C   0  0  0  0  0  0  0  0  0  0  0  0
   51.3080   32.8086   28.1272 O   0  0  0  0  0  1  0  0  0  0  0  0
   48.4191   33.5181   27.1795 C   0  0  0  0  0  0  0  0  0  0  0  0
   47.0414   32.8806   27.4053 C   0  0  0  0  0  0  0  0  0  0  0  0
   46.3153   32.8524   26.1703 N   0  0  0  0  0  0  0  0  0  0  0  0
   45.7586   34.1766   25.9597 C   0  0  0  0  0  0  0  0  0  0  0  0
   44.2534   34.1816   26.1033 C   0  0  0  0  0  0  0  0  0  0  0  0
   43.7136   33.3469   25.1282 O   0  0  0  0  0  0  0  0  0  0  0  0
  1  2  1  0
  2  3  1  0
  2  4  2  3
  4  5  1  0
  5  6  2  3
  6  7  1  0
  7  8  1  0
  8  9  1  0
  9 10  1  0
  8 11  1  0
 11 12  2  3
 12 13  1  0
 11 14  1  0
 14 15  1  0
 15 16  1  0
 16 17  1  0
 17 18  1  0
 18 19  1  0
 15  8  1  0
M  CHG  2  10  -1  13  -1
M  END
$$$$
