
     RDKit          3D

 19 19  0  0  0  0  0  0  0  0999 V2000
   38.4016   50.2482   21.6099 C   0  0  0  0  0  0  0  0  0  0  0  0
   38.0561   48.8828   21.1833 C   0  0  0  0  0  0  0  0  0  0  0  0
   36.3601   48.4492   21.0963 Cl  0  0  0  0  0  0  0  0  0  0  0  0
   38.9523   47.9687   20.8632 C   0  0  0  0  0  0  0  0  0  0  0  0
   39.9216   47.4738   21.8273 C   0  0  0  0  0  0  0  0  0  0  0  0
   41.0465   46.9209   21.4138 C   0  0  0  0  0  0  0  0  0  0  0  0
   42.0240   46.4111   22.2994 N   0  0  0  0  0  0  0  0  0  0  0  0
   43.1384   45.6899   21.8050 C   0  0  0  0  0  0  0  0  0  0  0  0
   43.6331   46.1422   20.4960 N   0  0  0  0  0  0  0  0  0  0  0  0
   43.9747   44.7070   19.5811 S   0  0  0  0  0  1  0  0  0  0  0  0
   44.3089   45.5583   22.7212 C   0  0  0  0  0  0  0  0  0  0  0  0
   45.2084   46.4332   23.1275 C   0  0  0  0  0  0  0  0  0  0  0  0
   46.1158   46.1694   24.1330 O   0  0  0  0  0  1  0  0  0  0  0  0
   44.0536   44.1348   22.9641 C   0  0  0  0  0  0  0  0  0  0  0  0
   43.0446   44.1902   21.8090 C   0  0  0  0  0  0  0  0  0  0  0  0
   41.7949   43.6323   22.2336 N   0  0  0  0  0  0  0  0  0  0  0  0
   41.8889   42.1904   22.0922 C   0  0  0  0  0  0  0  0  0  0  0  0
   40.8596   41.6537   21.1233 C   0  0  0  0  0  0  0  0  0  0  0  0
   39.5922   41.9785   21.6000 O   0  0  0  0  0  0  0  0  0  0  0  0
  1  2  1  0
  2  3  1  0
  2  4  2  3
  4  5  1  0
  5  6  2  3
  6  7  1  0
  7  8  1  0
  8  9  1  0
  9 10  1  0
  8 11  1  0
 11 12  2  3
 12 13  1  0
 11 14  1  0
 14 15  1  0
 15 16  1  0
 16 17  1  0
 17 18  1  0
 18 19  1  0
 15  8  1  0
M  CHG  2  10  -1  13  -1
M  END
$$$$
