
     RDKit          3D

 24 25  0  0  0  0  0  0  0  0999 V2000
  150.5796  147.1877  144.8492 B   0  0  0  0  0  1  0  0  0  0  0  0
  151.3162  148.4802  144.3398 C   0  0  0  0  0  0  0  0  0  0  0  0
  152.0670  148.3816  143.2741 C   0  0  0  0  0  0  0  0  0  0  0  0
  151.5471  147.9374  142.0105 C   0  0  0  0  0  0  0  0  0  0  0  0
  151.9428  147.8679  140.8302 C   0  0  0  0  0  0  0  0  0  0  0  0
  150.2567  146.6415  140.3779 Cl  0  0  0  0  0  0  0  0  0  0  0  0
  152.3797  147.7912  139.5271 C   0  0  0  0  0  0  0  0  0  0  0  0
  151.7407  148.5644  138.5905 C   0  0  0  0  0  0  0  0  0  0  0  0
  153.4134  147.0253  138.9389 O   0  0  0  0  0  1  0  0  0  0  0  0
  151.1320  149.7066  145.0331 N   0  0  0  0  0  0  0  0  0  0  0  0
  152.2252  150.4883  145.5668 C   0  0  0  0  0  0  0  0  0  0  0  0
  153.3946  150.1302  145.1906 N   0  0  0  0  0  0  0  0  0  0  0  0
  154.6140  150.7498  145.5877 C   0  0  0  0  0  0  0  0  0  0  0  0
  155.8328  150.2954  145.0956 C   0  0  0  0  0  0  0  0  0  0  0  0
  157.0130  150.8992  145.4521 C   0  0  0  0  0  0  0  0  0  0  0  0
  157.0137  151.9724  146.3100 C   0  0  0  0  0  0  0  0  0  0  0  0
  155.8193  152.4371  146.8079 C   0  0  0  0  0  0  0  0  0  0  0  0
  154.6470  151.8250  146.4438 C   0  0  0  0  0  0  0  0  0  0  0  0
  153.1100  152.4052  147.1178 P   0  0  0  0  0  5  0  0  0  0  0  0
  152.8736  154.1061  147.0228 N   0  0  0  0  0  0  0  0  0  0  0  0
  151.9235  154.6524  147.9349 C   0  0  0  0  0  0  0  0  0  0  0  0
  152.5747  154.7138  149.3220 C   0  0  0  0  0  0  0  0  0  0  0  0
  151.6337  154.3778  150.2923 O   0  0  0  0  0  0  0  0  0  0  0  0
  151.9455  151.5776  146.4367 N   0  0  0  0  0  0  0  0  0  0  0  0
  1  2  1  0
  2  3  2  3
  3  4  1  0
  4  5  2  3
  5  6  1  0
  5  7  1  0
  7  8  2  0
  7  9  1  0
  2 10  1  0
 10 11  1  0
 11 12  2  0
 12 13  1  0
 13 14  2  0
 14 15  1  0
 15 16  2  0
 16 17  1  0
 17 18  2  0
 18 19  1  0
 19 20  1  0
 20 21  1  0
 21 22  1  0
 22 23  1  0
 19 24  2  0
 24 11  1  0
 18 13  1  0
M  CHG  2   1  -1   9  -1
M  RAD  1   1   2
M  END
$$$$
