
     RDKit          3D

 19 21  0  0  0  0  0  0  0  0999 V2000
  128.0611  146.0625  150.6124 C   0  0  0  0  0  0  0  0  0  0  0  0
  127.6184  144.6307  150.6514 C   0  0  0  0  0  0  0  0  0  0  0  0
  128.6938  143.7582  151.3109 C   0  0  0  0  0  0  0  0  0  0  0  0
  127.3567  144.0764  149.3002 C   0  0  0  0  0  0  0  0  0  0  0  0
  126.6726  144.7696  148.3294 C   0  0  0  0  0  0  0  0  0  0  0  0
  126.4747  144.1704  147.0923 C   0  0  0  0  0  0  0  0  0  0  0  0
  126.9589  142.8933  146.8391 C   0  0  0  0  0  0  0  0  0  0  0  0
  126.9200  142.0839  145.7691 N   0  0  0  0  0  0  0  0  0  0  0  0
  127.5405  140.9174  146.0067 C   0  0  0  0  0  0  0  0  0  0  0  0
  127.6759  139.8217  145.0529 C   0  0  0  0  0  0  0  0  0  0  0  0
  127.5117  138.5058  145.4277 C   0  0  0  0  0  0  0  0  0  0  0  0
  127.6389  137.4669  144.5288 C   0  0  0  0  0  0  0  0  0  0  0  0
  127.9387  137.6975  143.2024 C   0  0  0  0  0  0  0  0  0  0  0  0
  128.0691  136.6200  142.2771 N   0  0  0  0  0  0  0  0  0  0  0  0
  128.1037  139.0133  142.8232 C   0  0  0  0  0  0  0  0  0  0  0  0
  127.9755  140.0627  143.7301 C   0  0  0  0  0  0  0  0  0  0  0  0
  127.9818  141.0010  147.2677 N   0  0  0  0  0  0  0  0  0  0  0  0
  127.6463  142.1941  147.8114 C   0  0  0  0  0  0  0  0  0  0  0  0
  127.8262  142.8094  149.0203 C   0  0  0  0  0  0  0  0  0  0  0  0
  1  2  1  0
  2  3  1  0
  2  4  1  0
  4  5  2  0
  5  6  1  0
  6  7  2  0
  7  8  1  0
  8  9  1  0
  9 10  1  0
 10 11  2  0
 11 12  1  0
 12 13  2  0
 13 14  1  0
 13 15  1  0
 15 16  2  0
  9 17  2  0
 17 18  1  0
 18 19  2  0
 19  4  1  0
 18  7  1  0
 16 10  1  0
M  END
$$$$
