
     RDKit          3D

 21 22  0  0  0  0  0  0  0  0999 V2000
   39.5856  139.1247  120.3438 Cl  0  0  0  0  0  0  0  0  0  0  0  0
   40.1700  140.1311  119.0473 C   0  0  0  0  0  0  0  0  0  0  0  0
   39.3361  140.9539  118.3201 C   0  0  0  0  0  0  0  0  0  0  0  0
   39.8484  141.7488  117.2845 C   0  0  0  0  0  0  0  0  0  0  0  0
   41.1864  141.7283  116.9714 C   0  0  0  0  0  0  0  0  0  0  0  0
   41.7066  142.5271  115.9691 N   0  0  0  0  0  0  0  0  0  0  0  0
   42.9242  143.4017  116.2297 C   0  0  0  0  0  0  0  0  0  0  0  0
   44.0203  142.7553  116.3182 C   0  0  0  0  0  0  0  0  0  0  0  0
   45.4363  142.9702  116.5383 C   0  0  0  0  0  0  0  0  0  0  0  0
   45.9093  142.8189  117.9745 C   0  0  0  0  0  0  0  0  0  0  0  0
   47.3417  142.9211  118.2428 C   0  0  0  0  0  0  0  0  0  0  0  0
   47.8146  144.0591  118.8220 O   0  0  0  0  0  0  0  0  0  0  0  0
   46.8063  144.7879  119.4100 N   0  0  0  0  0  0  0  0  0  0  0  0
   46.0133  145.3857  118.5723 C   0  0  0  0  0  0  0  0  0  0  0  0
   45.2401  145.9469  117.7686 S   0  0  0  0  0  6  0  0  0  0  0  0
   43.8759  146.9027  116.3731 N   0  0  0  0  0  0  0  0  0  0  0  0
   43.2469  145.8814  115.6497 C   0  0  0  0  0  0  0  0  0  0  0  0
   42.5180  144.8061  116.3453 C   0  0  0  0  0  0  0  0  0  0  0  0
   41.9885  140.8992  117.7137 C   0  0  0  0  0  0  0  0  0  0  0  0
   41.5101  140.1094  118.7342 C   0  0  0  0  0  0  0  0  0  0  0  0
   42.6733  139.1170  119.5834 Cl  0  0  0  0  0  0  0  0  0  0  0  0
  1  2  1  0
  2  3  2  0
  3  4  1  0
  4  5  2  0
  5  6  1  0
  6  7  1  0
  7  8  2  0
  8  9  1  0
  9 10  1  0
 10 11  1  0
 11 12  1  0
 12 13  1  0
 13 14  1  0
 14 15  3  0
 15 16  2  0
 16 17  1  0
 17 18  1  0
  5 19  1  0
 19 20  2  0
 20 21  1  0
 20  2  1  0
 18  7  1  0
M  END
$$$$
