
     RDKit          3D

 24 24  0  0  0  0  0  0  0  0999 V2000
  124.7383  143.9149  138.6890 C   0  0  0  0  0  0  0  0  0  0  0  0
  124.6346  144.5665  139.9692 N   0  0  0  0  0  3  0  0  0  0  0  0
  125.2628  144.0298  140.9672 C   0  0  0  0  0  0  0  0  0  0  0  0
  125.8312  143.2048  141.7995 C   0  0  0  0  0  0  0  0  0  0  0  0
  126.0827  143.5387  143.1813 C   0  0  0  0  0  0  0  0  0  0  0  0
  126.5823  142.6717  144.0402 C   0  0  0  0  0  0  0  0  0  0  0  0
  126.9522  141.3280  143.5183 C   0  0  0  0  0  0  0  0  0  0  0  0
  127.5087  140.4335  144.5359 C   0  0  0  0  0  0  0  0  0  0  0  0
  127.9064  139.0999  144.1520 N   0  0  0  0  0  0  0  0  0  0  0  0
  127.9553  138.8349  142.7239 C   0  0  0  0  0  0  0  0  0  0  0  0
  128.5423  137.4341  142.5710 C   0  0  0  0  0  0  0  0  0  0  0  0
  128.4668  136.9497  141.2906 O   0  0  0  0  0  0  0  0  0  0  0  0
  127.6286  140.8372  145.7462 N   0  0  0  0  0  0  0  0  0  0  0  0
  127.2677  142.1228  146.2287 C   0  0  0  0  0  0  0  0  0  0  0  0
  127.4616  142.4548  147.5960 N   0  0  0  0  0  0  0  0  0  0  0  0
  127.4740  143.7548  148.0851 C   0  0  0  0  0  0  0  0  0  0  0  0
  126.6048  144.8083  147.5740 C   0  0  0  0  0  0  0  0  0  0  0  0
  128.3358  144.0563  149.1025 C   0  0  0  0  0  0  0  0  0  0  0  0
  127.9468  144.7001  150.2511 C   0  0  0  0  0  0  0  0  0  0  0  0
  127.5966  145.2794  151.2848 C   0  0  0  0  0  0  0  0  0  0  0  0
  128.1808  144.5483  152.8329 Cl  0  0  0  0  0  0  0  0  0  0  0  0
  126.7454  146.4884  151.5414 C   0  0  0  0  0  0  0  0  0  0  0  0
  125.4599  146.6376  150.3256 Cl  0  0  0  0  0  0  0  0  0  0  0  0
  126.7722  142.9932  145.4156 N   0  0  0  0  0  0  0  0  0  0  0  0
  1  2  1  0
  2  3  2  0
  3  4  2  0
  4  5  1  0
  5  6  2  3
  6  7  1  0
  7  8  1  0
  8  9  1  0
  9 10  1  0
 10 11  1  0
 11 12  1  0
  8 13  2  0
 13 14  1  0
 14 15  1  0
 15 16  1  0
 16 17  1  0
 16 18  2  3
 18 19  1  0
 19 20  2  3
 20 21  1  0
 20 22  1  0
 22 23  1  0
 14 24  2  0
 24  6  1  0
M  CHG  1   2   1
M  RAD  1   2   2
M  END
$$$$
