
     RDKit          3D

 22 24  0  0  0  0  0  0  0  0999 V2000
   46.4813   33.3641   24.8658 F   0  0  0  0  0  0  0  0  0  0  0  0
   45.7415   34.4170   25.2547 C   0  0  0  0  0  0  0  0  0  0  0  0
   45.1233   34.5060   26.4934 C   0  0  0  0  0  0  0  0  0  0  0  0
   45.3573   33.0264   27.6957 Br  0  0  0  0  0  0  0  0  0  0  0  0
   44.3849   35.6064   26.8246 C   0  0  0  0  0  0  0  0  0  0  0  0
   44.2365   36.6593   25.9302 C   0  0  0  0  0  0  0  0  0  0  0  0
   44.8545   36.5477   24.7179 C   0  0  0  0  0  0  0  0  0  0  0  0
   45.6101   35.4584   24.3366 C   0  0  0  0  0  0  0  0  0  0  0  0
   46.2360   35.4271   23.0136 C   0  0  0  0  0  0  0  0  0  0  0  0
   45.3809   34.8463   21.9960 N   0  0  0  0  0  0  0  0  0  0  0  0
   44.0869   35.4845   22.0350 C   0  0  0  0  0  0  0  0  0  0  0  0
   43.1920   34.9534   20.9550 C   0  0  0  0  0  0  0  0  0  0  0  0
   43.7949   34.9859   19.6479 N   0  0  0  0  0  0  0  0  0  0  0  0
   43.4573   33.8715   18.8336 C   0  0  0  0  0  0  0  0  0  0  0  0
   43.7263   34.0468   17.3884 C   0  0  0  0  0  0  0  0  0  0  0  0
   42.9426   34.9248   16.6428 C   0  0  0  0  0  0  0  0  0  0  0  0
   43.1433   35.1248   15.2918 C   0  0  0  0  0  0  0  0  0  0  0  0
   44.1596   34.4224   14.6752 C   0  0  0  0  0  0  0  0  0  0  0  0
   44.9652   33.5392   15.3714 C   0  0  0  0  0  0  0  0  0  0  0  0
   44.7206   33.3786   16.7159 C   0  0  0  0  0  0  0  0  0  0  0  0
   45.1305   35.4446   19.6251 C   0  0  0  0  0  0  0  0  0  0  0  0
   46.0106   34.8889   20.7073 C   0  0  0  0  0  0  0  0  0  0  0  0
  1  2  1  0
  2  3  2  0
  3  4  1  0
  3  5  1  0
  5  6  2  0
  6  7  1  0
  7  8  2  0
  8  9  1  0
  9 10  1  0
 10 11  1  0
 11 12  1  0
 12 13  1  0
 13 14  1  0
 14 15  1  0
 15 16  2  0
 16 17  1  0
 17 18  2  0
 18 19  1  0
 19 20  2  0
 13 21  1  0
 21 22  1  0
  8  2  1  0
 22 10  1  0
 20 15  1  0
M  END
$$$$
