
     RDKit          3D

 14 13  0  0  0  0  0  0  0  0999 V2000
   38.4786   25.6417   13.2005 N   0  0  0  0  0  0  0  0  0  0  0  0
   38.5462   24.9530   11.9211 C   0  0  0  0  0  0  0  0  0  0  0  0
   38.4116   23.5238   12.1531 C   0  0  0  0  0  0  0  0  0  0  0  0
   37.1772   23.0653   12.2104 C   0  0  0  0  0  0  0  0  0  0  0  0
   35.9644   22.5452   12.1228 C   0  0  0  0  0  0  0  0  0  0  0  0
   35.5849   21.6275   13.1801 C   0  0  0  0  0  0  0  0  0  0  0  0
   34.2484   21.2307   13.0572 O   0  0  0  0  0  0  0  0  0  0  0  0
   34.1448   19.8511   12.8978 C   0  0  0  0  0  0  0  0  0  0  0  0
   33.7924   19.2279   14.2234 C   0  0  0  0  0  0  0  0  0  0  0  0
   34.7623   18.7947   15.0093 C   0  0  0  0  0  0  0  0  0  0  0  0
   34.3739   18.2552   16.6316 Cl  0  0  0  0  0  0  0  0  0  0  0  0
   33.0221   19.5895   11.9497 C   0  0  0  0  0  0  0  0  0  0  0  0
   33.2313   19.3260   10.6677 C   0  0  0  0  0  0  0  0  0  0  0  0
   31.9367   19.0240    9.5536 Cl  0  0  0  0  0  0  0  0  0  0  0  0
  1  2  1  0
  2  3  1  0
  3  4  2  0
  4  5  2  0
  5  6  1  0
  6  7  1  0
  7  8  1  0
  8  9  1  0
  9 10  2  3
 10 11  1  0
  8 12  1  0
 12 13  2  3
 13 14  1  0
M  END
$$$$
