
     RDKit          3D

 24 26  0  0  0  0  0  0  0  0999 V2000
  125.3011  129.2483   79.6137 O   0  0  0  0  0  0  0  0  0  0  0  0
  125.6648  129.6993   78.3239 C   0  0  0  0  0  0  0  0  0  0  0  0
  124.7657  129.0362   77.3230 C   0  0  0  0  0  0  0  0  0  0  0  0
  125.4620  128.8571   76.0251 C   0  0  0  0  0  0  0  0  0  0  0  0
  125.9853  127.6359   75.6718 C   0  0  0  0  0  0  0  0  0  0  0  0
  126.6411  127.4379   74.4489 C   0  0  0  0  0  0  0  0  0  0  0  0
  126.7473  128.5041   73.6084 C   0  0  0  0  0  0  0  0  0  0  0  0
  127.3658  128.3809   72.4160 F   0  0  0  0  0  0  0  0  0  0  0  0
  126.2320  129.7467   73.9330 C   0  0  0  0  0  0  0  0  0  0  0  0
  125.5976  129.9159   75.1291 C   0  0  0  0  0  0  0  0  0  0  0  0
  125.3951  131.2088   78.3774 C   0  0  0  0  0  0  0  0  0  0  0  0
  126.1762  131.7021   79.6030 C   0  0  0  0  0  0  0  0  0  0  0  0
  127.5601  131.5720   79.3343 N   0  0  0  0  0  0  0  0  0  0  0  0
  128.4396  131.7241   80.4439 C   0  0  0  0  0  0  0  0  0  0  0  0
  129.8150  131.9532   79.9054 C   0  0  0  0  0  0  0  0  0  0  0  0
  130.0860  133.0513   79.1212 C   0  0  0  0  0  0  0  0  0  0  0  0
  131.3335  133.3178   78.5948 C   0  0  0  0  0  0  0  0  0  0  0  0
  132.3510  132.4527   78.8627 C   0  0  0  0  0  0  0  0  0  0  0  0
  132.1045  131.3435   79.6472 C   0  0  0  0  0  0  0  0  0  0  0  0
  130.8497  131.0819   80.1724 C   0  0  0  0  0  0  0  0  0  0  0  0
  130.6215  129.8808   81.0088 C   0  0  0  0  0  0  0  0  0  0  0  0
  130.5162  128.7906   80.1673 F   0  0  0  0  0  0  0  0  0  0  0  0
  127.9666  130.7116   78.2935 C   0  0  0  0  0  0  0  0  0  0  0  0
  127.1100  129.4910   78.0591 C   0  0  0  0  0  0  0  0  0  0  0  0
  1  2  1  0
  2  3  1  0
  3  4  1  0
  4  5  2  0
  5  6  1  0
  6  7  2  0
  7  8  1  0
  7  9  1  0
  9 10  2  0
  2 11  1  0
 11 12  1  0
 12 13  1  0
 13 14  1  0
 14 15  1  0
 15 16  2  0
 16 17  1  0
 17 18  2  0
 18 19  1  0
 19 20  2  0
 20 21  1  0
 21 22  1  0
 13 23  1  0
 23 24  1  0
 24  2  1  0
 10  4  1  0
 20 15  1  0
M  END
$$$$
