
     RDKit          3D

 20 22  0  0  0  0  0  0  0  0999 V2000
   23.6174   72.2703   15.6608 Cl  0  0  0  0  0  0  0  0  0  0  0  0
   22.9982   70.7547   14.9158 C   0  0  0  0  0  0  0  0  0  0  0  0
   23.5763   70.3255   13.8173 C   0  0  0  0  0  0  0  0  0  0  0  0
   23.3379   69.1749   12.9747 C   0  0  0  0  0  0  0  0  0  0  0  0
   23.4782   67.8581   13.5852 N   0  0  0  0  0  0  0  0  0  0  0  0
   22.2597   67.0959   13.8157 C   0  0  0  0  0  0  0  0  0  0  0  0
   21.1332   67.7900   13.8319 N   0  0  0  0  0  0  0  0  0  0  0  0
   19.9583   67.2260   14.0719 C   0  0  0  0  0  0  0  0  0  0  0  0
   19.8949   65.9184   14.3023 N   0  0  0  0  0  0  0  0  0  0  0  0
   21.0121   65.1517   14.2974 C   0  0  0  0  0  0  0  0  0  0  0  0
   20.9612   63.7895   14.5347 C   0  0  0  0  0  0  0  0  0  0  0  0
   22.1269   63.0387   14.5208 C   0  0  0  0  0  0  0  0  0  0  0  0
   23.3297   63.6691   14.2681 C   0  0  0  0  0  0  0  0  0  0  0  0
   23.4244   65.0231   14.0269 C   0  0  0  0  0  0  0  0  0  0  0  0
   22.2548   65.7433   14.0466 C   0  0  0  0  0  0  0  0  0  0  0  0
   18.8550   68.1525   14.0902 N   0  0  0  0  0  0  0  0  0  0  0  0
   19.0789   69.5444   13.6874 C   0  0  0  0  0  0  0  0  0  0  0  0
   19.1229   70.5141   14.7873 C   0  0  0  0  0  0  0  0  0  0  0  0
   20.0856   70.7538   15.6474 C   0  0  0  0  0  0  0  0  0  0  0  0
   21.6685   70.0132   15.8107 S   0  0  0  0  0  2  0  0  0  0  0  0
  1  2  1  0
  2  3  2  0
  3  4  1  0
  4  5  1  0
  5  6  1  0
  6  7  1  0
  7  8  2  0
  8  9  1  0
  9 10  2  0
 10 11  1  0
 11 12  2  0
 12 13  1  0
 13 14  2  0
 14 15  1  0
  8 16  1  0
 16 17  1  0
 17 18  1  0
 18 19  2  0
 19 20  1  0
 20  2  1  0
 15  6  2  0
 15 10  1  0
M  CHG  1  20   1
M  RAD  1  20   2
M  END
$$$$
