
     RDKit          3D

 23 24  0  0  0  0  0  0  0  0999 V2000
   17.2650  -26.2452  -28.7999 C   0  0  0  0  0  0  0  0  0  0  0  0
   17.4014  -25.5142  -27.6027 C   0  0  0  0  0  0  0  0  0  0  0  0
   16.0330  -24.6328  -26.9919 S   0  0  0  0  0  4  0  0  0  0  0  0
   16.8045  -24.3274  -25.4916 C   0  0  0  0  0  0  0  0  0  0  0  0
   16.1401  -24.5645  -24.3085 C   0  0  0  0  0  0  0  0  0  0  0  0
   16.7114  -24.3248  -23.1422 C   0  0  0  0  0  0  0  0  0  0  0  0
   17.9837  -23.6801  -22.9104 N   0  0  0  0  0  0  0  0  0  0  0  0
   18.1689  -23.6497  -21.6409 C   0  0  0  0  0  0  0  0  0  0  0  0
   19.3065  -23.0954  -20.9993 N   0  0  0  0  0  0  0  0  0  0  0  0
   20.4669  -22.7222  -21.7274 C   0  0  0  0  0  0  0  0  0  0  0  0
   21.4436  -22.0273  -21.0544 C   0  0  0  0  0  0  0  0  0  0  0  0
   22.6072  -21.6139  -21.6498 C   0  0  0  0  0  0  0  0  0  0  0  0
   22.7977  -21.9133  -22.9826 C   0  0  0  0  0  0  0  0  0  0  0  0
   24.2859  -21.4185  -23.8630 S   0  0  0  0  0  1  0  0  0  0  0  0
   21.8227  -22.6098  -23.6624 C   0  0  0  0  0  0  0  0  0  0  0  0
   22.0147  -23.0172  -25.3744 Cl  0  0  0  0  0  0  0  0  0  0  0  0
   20.6583  -23.0189  -23.0512 C   0  0  0  0  0  0  0  0  0  0  0  0
   17.0832  -24.2447  -20.9435 N   0  0  0  0  0  0  0  0  0  0  0  0
   16.2161  -24.6475  -21.8127 C   0  0  0  0  0  0  0  0  0  0  0  0
   14.9706  -25.3032  -21.4912 N   0  0  0  0  0  0  0  0  0  0  0  0
   14.6794  -25.7188  -20.1452 C   0  0  0  0  0  0  0  0  0  0  0  0
   13.6010  -24.9056  -19.4754 C   0  0  0  0  0  0  0  0  0  0  0  0
   14.1705  -23.6882  -19.1010 O   0  0  0  0  0  0  0  0  0  0  0  0
  1  2  1  0
  2  3  2  0
  3  4  2  0
  4  5  1  0
  5  6  2  3
  6  7  1  0
  7  8  2  0
  8  9  1  0
  9 10  1  0
 10 11  2  0
 11 12  1  0
 12 13  2  0
 13 14  1  0
 13 15  1  0
 15 16  1  0
 15 17  2  0
  8 18  1  0
 18 19  2  0
 19 20  1  0
 20 21  1  0
 21 22  1  0
 22 23  1  0
 19  6  1  0
 17 10  1  0
M  CHG  1  14   1
M  RAD  1  14   3
M  END
$$$$
