
     RDKit          3D

 26 28  0  0  0  0  0  0  0  0999 V2000
   15.9866    5.9479    0.1591 C   0  0  0  0  0  0  0  0  0  0  0  0
   15.9742    4.4702    0.4916 C   0  0  0  0  0  0  0  0  0  0  0  0
   15.1601    4.2062    1.6310 O   0  0  0  0  0  0  0  0  0  0  0  0
   14.0285    3.4245    1.5605 C   0  0  0  0  0  0  0  0  0  0  0  0
   14.0496    2.5515    0.6260 O   0  0  0  0  0  0  0  0  0  0  0  0
   12.8705    3.5324    2.4433 C   0  0  0  0  0  0  0  0  0  0  0  0
   11.6840    2.8541    2.1354 C   0  0  0  0  0  0  0  0  0  0  0  0
   10.5975    2.9513    2.9189 N   0  0  0  0  0  0  0  0  0  0  0  0
   10.5494    3.6837    4.0336 C   0  0  0  0  0  0  0  0  0  0  0  0
    9.3866    3.7350    4.7934 C   0  0  0  0  0  0  0  0  0  0  0  0
    9.4009    4.5079    5.9315 C   0  0  0  0  0  0  0  0  0  0  0  0
   10.5393    5.2049    6.2964 C   0  0  0  0  0  0  0  0  0  0  0  0
   11.6858    5.1409    5.5276 C   0  0  0  0  0  0  0  0  0  0  0  0
   11.6906    4.3712    4.3828 C   0  0  0  0  0  0  0  0  0  0  0  0
   12.8413    4.2901    3.5859 C   0  0  0  0  0  0  0  0  0  0  0  0
   13.9947    4.9926    3.9926 N   0  0  0  0  0  0  0  0  0  0  0  0
   14.1967    6.3946    3.6888 C   0  0  0  0  0  0  0  0  0  0  0  0
   13.0707    7.2509    4.0658 C   0  0  0  0  0  0  0  0  0  0  0  0
   11.9712    7.2906    3.2286 C   0  0  0  0  0  0  0  0  0  0  0  0
   10.8778    8.0728    3.5256 C   0  0  0  0  0  0  0  0  0  0  0  0
   10.8273    8.8490    4.6645 C   0  0  0  0  0  0  0  0  0  0  0  0
    9.6869    9.6615    4.9692 N   0  0  0  0  0  4  0  0  0  0  0  0
    9.1707    9.5027    6.0915 O   0  0  0  0  0  0  0  0  0  0  0  0
    9.1774   10.5665    4.0920 O   0  0  0  0  0  1  0  0  0  0  0  0
   11.9307    8.7983    5.4880 C   0  0  0  0  0  0  0  0  0  0  0  0
   13.0348    8.0218    5.2085 C   0  0  0  0  0  0  0  0  0  0  0  0
  1  2  1  0
  2  3  1  0
  3  4  1  0
  4  5  2  0
  4  6  1  0
  6  7  2  0
  7  8  1  0
  8  9  2  0
  9 10  1  0
 10 11  2  0
 11 12  1  0
 12 13  2  0
 13 14  1  0
 14 15  2  0
 15 16  1  0
 16 17  1  0
 17 18  1  0
 18 19  2  0
 19 20  1  0
 20 21  2  0
 21 22  1  0
 22 23  2  0
 22 24  1  0
 21 25  1  0
 25 26  2  0
 15  6  1  0
 26 18  1  0
 14  9  1  0
M  CHG  2  22   1  24  -1
M  END
$$$$
