
     RDKit          3D

 23 25  0  0  0  0  0  0  0  0999 V2000
  115.3644  152.1013  136.2743 O   0  0  0  0  0  0  0  0  0  0  0  0
  114.4425  152.4623  137.2634 C   0  0  0  0  0  0  0  0  0  0  0  0
  114.0495  151.3155  138.1282 C   0  0  0  0  0  0  0  0  0  0  0  0
  114.9411  151.1331  139.2550 N   0  0  0  0  0  0  0  0  0  0  0  0
  115.3087  149.8256  139.6319 C   0  0  0  0  0  0  0  0  0  0  0  0
  116.2512  149.6181  140.6061 N   0  0  0  0  0  0  0  0  0  0  0  0
  116.6221  148.3963  141.0019 C   0  0  0  0  0  0  0  0  0  0  0  0
  117.8459  148.2374  142.2658 B   0  0  0  0  0  2  0  0  0  0  0  0
  119.0890  148.0462  143.5061 C   0  0  0  0  0  0  0  0  0  0  0  0
  120.3637  147.6373  143.1920 C   0  0  0  0  0  0  0  0  0  0  0  0
  121.3444  147.4818  144.1350 C   0  0  0  0  0  0  0  0  0  0  0  0
  121.0887  147.7325  145.4559 C   0  0  0  0  0  0  0  0  0  0  0  0
  122.3122  147.5478  146.7033 Cl  0  0  0  0  0  0  0  0  0  0  0  0
  119.8144  148.1461  145.8065 C   0  0  0  0  0  0  0  0  0  0  0  0
  119.4316  148.4816  147.4871 Cl  0  0  0  0  0  0  0  0  0  0  0  0
  118.8222  148.3006  144.8311 C   0  0  0  0  0  0  0  0  0  0  0  0
  116.0481  147.3411  140.4215 N   0  0  0  0  0  0  0  0  0  0  0  0
  115.1067  147.4683  139.4493 C   0  0  0  0  0  0  0  0  0  0  0  0
  114.5275  146.3707  138.8634 C   0  0  0  0  0  0  0  0  0  0  0  0
  113.5718  146.4524  137.8766 C   0  0  0  0  0  0  0  0  0  0  0  0
  113.1944  147.7139  137.4736 C   0  0  0  0  0  0  0  0  0  0  0  0
  113.7804  148.8510  138.0659 C   0  0  0  0  0  0  0  0  0  0  0  0
  114.7257  148.7373  139.0424 C   0  0  0  0  0  0  0  0  0  0  0  0
  1  2  1  0
  2  3  1  0
  3  4  1  0
  4  5  1  0
  5  6  2  0
  6  7  1  0
  7  8  1  0
  8  9  1  0
  9 10  2  0
 10 11  1  0
 11 12  2  0
 12 13  1  0
 12 14  1  0
 14 15  1  0
 14 16  2  0
  7 17  2  0
 17 18  1  0
 18 19  2  0
 19 20  1  0
 20 21  2  0
 21 22  1  0
 22 23  2  0
 23  5  1  0
 16  9  1  0
 23 18  1  0
M  CHG  1   8   1
M  END
$$$$
