
     RDKit          3D

 19 19  0  0  0  0  0  0  0  0999 V2000
    4.6785   29.1165   -8.2630 C   0  0  0  0  0  0  0  0  0  0  0  0
    3.3574   28.7343   -7.6166 C   0  0  0  0  0  0  0  0  0  0  0  0
    3.5670   28.4435   -6.1731 C   0  0  0  0  0  0  0  0  0  0  0  0
    2.5477   30.0561   -7.6459 C   0  0  0  0  0  0  0  0  0  0  0  0
    2.5462   27.7969   -8.3973 C   0  0  0  0  0  0  0  0  0  0  0  0
    1.6263   26.8448   -7.7764 C   0  0  0  0  0  0  0  0  0  0  0  0
    2.1236   26.1424   -6.5437 C   0  0  0  0  0  0  0  0  0  0  0  0
    1.4544   25.7145   -8.8202 C   0  0  0  0  0  0  0  0  0  0  0  0
    0.3599   27.4289   -7.5049 N   0  0  0  0  0  0  0  0  0  0  0  0
    0.2730   28.1527   -6.2671 C   0  0  0  0  0  0  0  0  0  0  0  0
    0.0979   29.6437   -6.4746 C   0  0  1  0  0  0  0  0  0  0  0  0
   -1.2313   30.0294   -6.4529 O   0  0  0  0  0  0  0  0  0  0  0  0
    0.9343   30.4269   -5.5301 C   0  0  0  0  0  0  0  0  0  0  0  0
    1.9449   31.2616   -5.9575 C   0  0  0  0  0  0  0  0  0  0  0  0
    2.6912   31.9656   -5.0699 C   0  0  0  0  0  0  0  0  0  0  0  0
    2.4740   31.8774   -3.7268 C   0  0  0  0  0  0  0  0  0  0  0  0
    3.4613   32.8034   -2.6259 Cl  0  0  0  0  0  0  0  0  0  0  0  0
    1.4777   31.0560   -3.2854 C   0  0  0  0  0  0  0  0  0  0  0  0
    0.7118   30.3352   -4.1720 C   0  0  0  0  0  0  0  0  0  0  0  0
  1  2  1  0
  2  3  1  0
  2  4  1  0
  2  5  1  0
  5  6  1  0
  6  7  1  0
  6  8  1  0
  6  9  1  0
  9 10  1  0
 10 11  1  0
 11 12  1  1
 11 13  1  0
 13 14  2  0
 14 15  1  0
 15 16  2  0
 16 17  1  0
 16 18  1  0
 18 19  2  0
 19 13  1  0
M  END
$$$$
