
     RDKit          3D

 25 26  0  0  0  0  0  0  0  0999 V2000
  150.3018  143.6259  145.2819 C   0  0  0  0  0  0  0  0  0  0  0  0
  150.3938  144.3542  144.0726 O   0  0  0  0  0  0  0  0  0  0  0  0
  150.9131  145.6377  144.0844 C   0  0  0  0  0  0  0  0  0  0  0  0
  151.3774  146.2356  145.2315 C   0  0  0  0  0  0  0  0  0  0  0  0
  151.8827  147.5161  145.1781 C   0  0  0  0  0  0  0  0  0  0  0  0
  151.9342  148.2204  143.9866 C   0  0  0  0  0  0  0  0  0  0  0  0
  152.4747  149.5800  143.9504 C   0  0  0  0  0  0  0  0  0  0  0  0
  152.4413  150.2388  142.8520 O   0  0  0  0  0  0  0  0  0  0  0  0
  153.0549  150.2403  145.0957 C   0  0  0  0  0  0  0  0  0  0  0  0
  153.4347  151.4886  145.0361 C   0  0  0  0  0  0  0  0  0  0  0  0
  154.0181  152.2331  146.1518 C   0  0  0  0  0  0  0  0  0  0  0  0
  153.3682  153.2831  146.7581 C   0  0  0  0  0  0  0  0  0  0  0  0
  153.9507  153.9797  147.8262 C   0  0  0  0  0  0  0  0  0  0  0  0
  153.2834  155.0367  148.4279 O   0  0  0  0  0  0  0  0  0  0  0  0
  152.1337  155.6346  147.9176 C   0  0  0  0  0  0  0  0  0  0  0  0
  155.1979  153.6173  148.2888 C   0  0  0  0  0  0  0  0  0  0  0  0
  155.7939  154.2924  149.3446 O   0  0  0  0  0  0  0  0  0  0  0  0
  156.9953  153.8247  149.9034 C   0  0  0  0  0  0  0  0  0  0  0  0
  155.8472  152.5568  147.6718 C   0  0  0  0  0  0  0  0  0  0  0  0
  155.2808  151.8670  146.6210 C   0  0  0  0  0  0  0  0  0  0  0  0
  155.9241  150.8073  146.0009 O   0  0  0  0  0  0  0  0  0  0  0  0
  157.2098  150.4457  146.4704 C   0  0  0  0  0  0  0  0  0  0  0  0
  151.4704  147.6117  142.8643 C   0  0  0  0  0  0  0  0  0  0  0  0
  150.9625  146.3318  142.9036 C   0  0  0  0  0  0  0  0  0  0  0  0
  150.5072  145.7719  141.7238 O   0  0  0  0  0  0  0  0  0  0  0  0
  1  2  1  0
  2  3  1  0
  3  4  2  0
  4  5  1  0
  5  6  2  0
  6  7  1  0
  7  8  2  0
  7  9  1  0
  9 10  2  3
 10 11  1  0
 11 12  2  0
 12 13  1  0
 13 14  1  0
 14 15  1  0
 13 16  2  0
 16 17  1  0
 17 18  1  0
 16 19  1  0
 19 20  2  0
 20 21  1  0
 21 22  1  0
  6 23  1  0
 23 24  2  0
 24 25  1  0
 24  3  1  0
 20 11  1  0
M  END
$$$$
