
     RDKit          3D

 20 21  0  0  0  0  0  0  0  0999 V2000
  127.6816  136.8823  142.5789 N   0  0  0  0  0  0  0  0  0  0  0  0
  127.9906  138.0708  143.3209 C   0  0  0  0  0  0  0  0  0  0  0  0
  127.8600  137.9438  144.7553 C   0  0  0  0  0  0  0  0  0  0  0  0
  127.6080  139.0610  145.4209 C   0  0  0  0  0  0  0  0  0  0  0  0
  127.5234  140.1562  146.1155 C   0  0  0  0  0  0  0  0  0  0  0  0
  127.4627  141.3986  145.3595 C   0  0  0  0  0  0  0  0  0  0  0  0
  127.3676  142.4758  146.3512 N   0  0  0  0  0  0  0  0  0  0  0  0
  127.3461  142.3114  147.6100 C   0  0  0  0  0  0  0  0  0  0  0  0
  127.2448  143.5619  148.4059 C   0  0  0  0  0  0  0  0  0  0  0  0
  126.6526  144.6926  147.9160 C   0  0  0  0  0  0  0  0  0  0  0  0
  126.5625  145.8455  148.6577 C   0  0  0  0  0  0  0  0  0  0  0  0
  127.0844  145.8652  149.9348 C   0  0  0  0  0  0  0  0  0  0  0  0
  126.9860  147.3051  150.8953 Cl  0  0  0  0  0  0  0  0  0  0  0  0
  127.6827  144.7147  150.4229 C   0  0  0  0  0  0  0  0  0  0  0  0
  128.3408  144.7760  152.0638 Cl  0  0  0  0  0  0  0  0  0  0  0  0
  127.7682  143.5654  149.6732 C   0  0  0  0  0  0  0  0  0  0  0  0
  127.4106  141.0548  148.2668 N   0  0  0  0  0  0  0  0  0  0  0  0
  127.4974  140.0009  147.5313 C   0  0  0  0  0  0  0  0  0  0  0  0
  127.5672  138.6705  148.1717 C   0  0  0  0  0  0  0  0  0  0  0  0
  127.8406  138.8519  149.5161 O   0  0  0  0  0  0  0  0  0  0  0  0
  1  2  1  0
  2  3  1  0
  3  4  2  0
  4  5  2  0
  5  6  1  0
  6  7  1  0
  7  8  2  0
  8  9  1  0
  9 10  2  0
 10 11  1  0
 11 12  2  0
 12 13  1  0
 12 14  1  0
 14 15  1  0
 14 16  2  0
  8 17  1  0
 17 18  2  0
 18 19  1  0
 19 20  1  0
 18  5  1  0
 16  9  1  0
M  END
$$$$
