
     RDKit          3D

 23 22  0  0  0  0  0  0  0  0999 V2000
  -16.1987  -10.0794   -3.8396 C   0  0  0  0  0  0  0  0  0  0  0  0
  -15.2158   -9.6843   -3.0954 C   0  0  0  0  0  0  0  0  0  0  0  0
  -14.1678   -9.2779   -2.4571 C   0  0  0  0  0  0  0  0  0  0  0  0
  -14.2127   -8.0414   -1.8727 N   0  0  0  0  0  0  0  0  0  0  0  0
  -13.0094  -10.1082   -2.3781 C   0  0  0  0  0  0  0  0  0  0  0  0
  -11.5354   -9.6258   -1.5560 Cl  0  0  0  0  0  0  0  0  0  0  0  0
  -13.0268  -11.3145   -2.9533 C   0  0  0  0  0  0  0  0  0  0  0  0
  -14.1207  -11.7657   -3.8414 C   0  0  0  0  0  0  0  0  0  0  0  0
  -13.5050  -12.2497   -5.0658 N   0  0  0  0  0  0  0  0  0  0  0  0
  -14.4893  -12.7863   -5.9812 C   0  0  0  0  0  0  0  0  0  0  0  0
  -13.8459  -13.4887   -7.1245 C   0  0  0  0  0  0  0  0  0  0  0  0
  -12.7163  -13.0592   -7.6464 C   0  0  0  0  0  0  0  0  0  0  0  0
  -12.1006  -13.7086   -8.7347 N   0  0  0  0  0  0  0  0  0  0  0  0
  -10.9483  -13.3759   -9.2107 C   0  0  0  0  0  0  0  0  0  0  0  0
  -10.5662  -12.0059   -9.1768 N   0  0  0  0  0  0  0  0  0  0  0  0
   -9.0908  -11.4746   -9.9630 Cl  0  0  0  0  0  0  0  0  0  0  0  0
  -15.3235  -11.7263   -6.4538 N   0  0  0  0  0  0  0  0  0  0  0  0
  -16.5224  -11.8554   -6.9085 C   0  0  0  0  0  0  0  0  0  0  0  0
  -17.1932  -10.8631   -7.7881 C   0  0  0  0  0  0  0  0  0  0  0  0
  -17.2562  -13.0323   -6.5400 N   0  0  0  0  0  0  0  0  0  0  0  0
  -18.1532  -12.9950   -5.3998 C   0  0  0  0  0  0  0  0  0  0  0  0
  -18.7800  -14.3538   -5.2084 C   0  0  0  0  0  0  0  0  0  0  0  0
  -17.7932  -15.1654   -4.6171 O   0  0  0  0  0  0  0  0  0  0  0  0
  1  2  2  0
  2  3  2  0
  3  4  1  0
  3  5  1  0
  5  6  1  0
  5  7  2  3
  7  8  1  0
  8  9  1  0
  9 10  1  0
 10 11  1  0
 11 12  2  3
 12 13  1  0
 13 14  2  3
 14 15  1  0
 15 16  1  0
 10 17  1  0
 17 18  2  3
 18 19  1  0
 18 20  1  0
 20 21  1  0
 21 22  1  0
 22 23  1  0
M  END
$$$$
