
     RDKit          3D

 18 18  0  0  0  0  0  0  0  0999 V2000
    4.4871   30.3263   -2.8278 C   0  0  0  0  0  0  0  0  0  0  0  0
    3.0812   30.7597   -2.8655 C   0  0  0  0  0  0  0  0  0  0  0  0
    2.6527   31.9210   -2.0730 C   0  0  0  0  0  0  0  0  0  0  0  0
    1.9952   31.3510   -0.5010 Cl  0  0  0  0  0  0  0  0  0  0  0  0
    2.1541   30.1267   -3.6005 C   0  0  0  0  0  0  0  0  0  0  0  0
    0.5495   30.7534   -3.5075 Cl  0  0  0  0  0  0  0  0  0  0  0  0
    2.4582   29.0283   -4.3979 N   0  0  0  0  0  0  0  0  0  0  0  0
    2.5703   28.9779   -5.6578 C   0  0  0  0  0  0  0  0  0  0  0  0
    2.1103   27.7487   -6.2652 N   0  0  0  0  0  0  0  0  0  0  0  0
    1.9370   27.5774   -7.6626 C   0  0  0  0  0  0  0  0  0  0  0  0
    1.2833   26.2884   -8.0735 C   0  0  0  0  0  0  0  0  0  0  0  0
    0.0590   26.6144   -8.6829 O   0  0  0  0  0  0  0  0  0  0  0  0
    3.1267   30.0500   -6.4622 C   0  0  0  0  0  0  0  0  0  0  0  0
    2.3912   31.0230   -7.0868 C   0  0  0  0  0  0  0  0  0  0  0  0
    3.0383   31.9924   -7.8307 C   0  0  0  0  0  0  0  0  0  0  0  0
    4.4080   32.0325   -7.9789 C   0  0  0  0  0  0  0  0  0  0  0  0
    5.1548   31.0594   -7.3547 C   0  0  0  0  0  0  0  0  0  0  0  0
    4.5163   30.0974   -6.6177 C   0  0  0  0  0  0  0  0  0  0  0  0
  1  2  1  0
  2  3  1  0
  3  4  1  0
  2  5  2  3
  5  6  1  0
  5  7  1  0
  7  8  2  3
  8  9  1  0
  9 10  1  0
 10 11  1  0
 11 12  1  0
  8 13  1  0
 13 14  2  0
 14 15  1  0
 15 16  2  0
 16 17  1  0
 17 18  2  0
 18 13  1  0
M  END
$$$$
