
     RDKit          3D

 15 14  0  0  0  0  0  0  0  0999 V2000
   15.0174  -26.4189  -19.5820 C   0  0  0  0  0  0  0  0  0  0  0  0
   14.8525  -25.1378  -19.8154 C   0  0  0  0  0  0  0  0  0  0  0  0
   13.4604  -24.6907  -20.1587 C   0  0  0  0  0  0  0  0  0  0  0  0
   12.5334  -25.1015  -19.0500 C   0  0  0  0  0  0  0  0  0  0  0  0
   15.8785  -24.0932  -19.8094 C   0  0  0  0  0  0  0  0  0  0  0  0
   16.7861  -24.0628  -21.0191 C   0  0  0  0  0  0  0  0  0  0  0  0
   16.2037  -23.3701  -22.1469 C   0  0  0  0  0  0  0  0  0  0  0  0
   16.1458  -23.8865  -23.3717 C   0  0  0  0  0  0  0  0  0  0  0  0
   16.4918  -25.3579  -23.5361 C   0  0  0  0  0  0  0  0  0  0  0  0
   15.8185  -23.0712  -24.5197 C   0  0  0  0  0  0  0  0  0  0  0  0
   16.0397  -23.6649  -25.8844 C   0  0  0  0  0  0  0  0  0  0  0  0
   17.4121  -24.1060  -26.1773 C   0  0  0  0  0  0  0  0  0  0  0  0
   18.0512  -23.7109  -27.2830 C   0  0  0  0  0  0  0  0  0  0  0  0
   19.3772  -24.2767  -27.5835 C   0  0  0  0  0  0  0  0  0  0  0  0
   17.4702  -22.7190  -28.2210 C   0  0  0  0  0  0  0  0  0  0  0  0
  1  2  2  0
  2  3  1  0
  3  4  1  0
  2  5  1  0
  5  6  1  0
  6  7  1  0
  7  8  2  0
  8  9  1  0
  8 10  1  0
 10 11  1  0
 11 12  1  0
 12 13  2  3
 13 14  1  0
 13 15  1  0
M  END
$$$$
