
     RDKit          3D

 23 25  0  0  0  0  0  0  0  0999 V2000
   -3.2957   -8.6359  -55.5669 O   0  0  0  0  0  0  0  0  0  0  0  0
   -4.0002   -7.7689  -56.3506 C   0  0  0  0  0  0  0  0  0  0  0  0
   -3.8187   -6.3418  -55.9840 C   0  0  0  0  0  0  0  0  0  0  0  0
   -2.5507   -5.9951  -55.4148 N   0  0  0  0  0  0  0  0  0  0  0  0
   -1.3770   -5.7084  -56.1448 C   0  0  0  0  0  0  0  0  0  0  0  0
   -1.3370   -5.8924  -57.4764 N   0  0  0  0  0  0  0  0  0  0  0  0
   -0.2715   -5.6587  -58.2291 C   0  0  0  0  0  0  0  0  0  0  0  0
   -0.3341   -5.9414  -60.0028 B   0  0  0  0  0  2  0  0  0  0  0  0
   -0.3370   -6.2724  -61.6982 C   0  0  0  0  0  0  0  0  0  0  0  0
   -0.1967   -7.5740  -62.1197 C   0  0  0  0  0  0  0  0  0  0  0  0
   -0.1986   -7.8409  -63.4709 C   0  0  0  0  0  0  0  0  0  0  0  0
   -0.3379   -6.8347  -64.4165 C   0  0  0  0  0  0  0  0  0  0  0  0
   -0.3372   -7.2025  -66.1409 Cl  0  0  0  0  0  0  0  0  0  0  0  0
   -0.4782   -5.5318  -63.9922 C   0  0  0  0  0  0  0  0  0  0  0  0
   -0.6540   -4.2514  -65.1369 Cl  0  0  0  0  0  0  0  0  0  0  0  0
   -0.4780   -5.2512  -62.6443 C   0  0  0  0  0  0  0  0  0  0  0  0
    0.8404   -5.2114  -57.6395 N   0  0  0  0  0  0  0  0  0  0  0  0
    0.9250   -4.9878  -56.3133 C   0  0  0  0  0  0  0  0  0  0  0  0
    2.0846   -4.5258  -55.7297 C   0  0  0  0  0  0  0  0  0  0  0  0
    2.1468   -4.3049  -54.3743 C   0  0  0  0  0  0  0  0  0  0  0  0
    1.0235   -4.5546  -53.6034 C   0  0  0  0  0  0  0  0  0  0  0  0
   -0.1343   -5.0190  -54.2068 C   0  0  0  0  0  0  0  0  0  0  0  0
   -0.2190   -5.2468  -55.5592 C   0  0  0  0  0  0  0  0  0  0  0  0
  1  2  1  0
  2  3  1  0
  3  4  1  0
  4  5  1  0
  5  6  2  0
  6  7  1  0
  7  8  1  0
  8  9  1  0
  9 10  2  0
 10 11  1  0
 11 12  2  0
 12 13  1  0
 12 14  1  0
 14 15  1  0
 14 16  2  0
  7 17  2  0
 17 18  1  0
 18 19  2  0
 19 20  1  0
 20 21  2  0
 21 22  1  0
 22 23  2  0
 23  5  1  0
 16  9  1  0
 23 18  1  0
M  CHG  1   8   1
M  END
$$$$
