
     RDKit          3D

  8  7  0  0  0  0  0  0  0  0999 V2000
  126.9687  134.9071  144.3396 C   0  0  0  0  0  0  0  0  0  0  0  0
  127.3077  136.1609  143.5740 C   0  0  0  0  0  0  0  0  0  0  0  0
  127.8977  136.1047  142.3976 C   0  0  0  0  0  0  0  0  0  0  0  0
  128.1352  137.3066  141.6298 C   0  0  0  0  0  0  0  0  0  0  0  0
  128.7693  137.2310  140.4924 C   0  0  0  0  0  0  0  0  0  0  0  0
  129.2123  137.4911  139.3423 O   0  0  0  0  0  3  0  0  0  0  0  0
  128.6705  138.6095  138.6239 C   0  0  0  0  0  0  0  0  0  0  0  0
  130.0163  139.6420  138.0947 Cl  0  0  0  0  0  0  0  0  0  0  0  0
  1  2  1  0
  2  3  2  3
  3  4  1  0
  4  5  2  0
  5  6  2  0
  6  7  1  0
  7  8  1  0
M  CHG  1   6   1
M  END
$$$$
