
     RDKit          3D

 19 20  0  0  0  0  0  0  0  0999 V2000
   21.8840   50.1509    7.7593 C   0  0  0  0  0  0  0  0  0  0  0  0
   22.1000   49.1324    8.8320 C   0  0  0  0  0  0  0  0  0  0  0  0
   23.3753   49.2855    9.4591 N   0  0  0  0  0  0  0  0  0  0  0  0
   24.2718   48.2285    9.0942 C   0  0  0  0  0  0  0  0  0  0  0  0
   25.5354   48.2558    9.8726 C   0  0  0  0  0  0  0  0  0  0  0  0
   26.3380   49.3722    9.8206 C   0  0  0  0  0  0  0  0  0  0  0  0
   27.5314   49.4463   10.5316 C   0  0  0  0  0  0  0  0  0  0  0  0
   27.8877   48.3664   11.2916 C   0  0  0  0  0  0  0  0  0  0  0  0
   27.1254   47.2307   11.3784 C   0  0  0  0  0  0  0  0  0  0  0  0
   27.5486   46.1865   12.1628 O   0  0  0  0  0  0  0  0  0  0  0  0
   25.9368   47.2043   10.6467 C   0  0  0  0  0  0  0  0  0  0  0  0
   24.9231   45.7864   10.7157 Cl  0  0  0  0  0  0  0  0  0  0  0  0
   20.9892   49.0775    9.8171 C   0  0  0  0  0  0  0  0  0  0  0  0
   19.7904   49.7175    9.5689 C   0  0  0  0  0  0  0  0  0  0  0  0
   18.7376   49.6834   10.4556 C   0  0  0  0  0  0  0  0  0  0  0  0
   18.8317   49.0017   11.6455 C   0  0  0  0  0  0  0  0  0  0  0  0
   17.5082   48.9595   12.7600 Cl  0  0  0  0  0  0  0  0  0  0  0  0
   20.0206   48.3552   11.9136 C   0  0  0  0  0  0  0  0  0  0  0  0
   21.0805   48.4003   11.0005 C   0  0  0  0  0  0  0  0  0  0  0  0
  1  2  1  0
  2  3  1  0
  3  4  1  0
  4  5  1  0
  5  6  2  0
  6  7  1  0
  7  8  2  0
  8  9  1  0
  9 10  1  0
  9 11  2  0
 11 12  1  0
  2 13  1  0
 13 14  2  0
 14 15  1  0
 15 16  2  0
 16 17  1  0
 16 18  1  0
 18 19  2  0
 11  5  1  0
 19 13  1  0
M  END
$$$$
