
     RDKit          3D

 13 13  0  0  0  0  0  0  0  0999 V2000
    6.6637   18.8702   23.3403 C   0  0  0  0  0  0  0  0  0  0  0  0
    5.4650   19.7383   23.2310 C   0  0  0  0  0  0  0  0  0  0  0  0
    5.2118   20.8006   23.9622 C   0  0  0  0  0  0  0  0  0  0  0  0
    3.9971   21.6076   23.9981 C   0  0  0  0  0  0  0  0  0  0  0  0
    2.8937   21.2869   23.2133 C   0  0  0  0  0  0  0  0  0  0  0  0
    1.7810   22.0834   23.2905 C   0  0  0  0  0  0  0  0  0  0  0  0
    0.7396   21.6775   22.4697 O   0  0  0  0  0  0  0  0  0  0  0  0
    1.7567   23.1941   24.1403 C   0  0  0  0  0  0  0  0  0  0  0  0
    0.5382   23.8672   24.0704 O   0  0  0  0  0  0  0  0  0  0  0  0
    2.8601   23.4961   24.9106 C   0  0  0  0  0  0  0  0  0  0  0  0
    2.6390   24.6302   25.6829 O   0  0  0  0  0  0  0  0  0  0  0  0
    3.6840   25.0353   26.5481 C   0  0  0  0  0  0  0  0  0  0  0  0
    3.9832   22.7006   24.8392 C   0  0  0  0  0  0  0  0  0  0  0  0
  1  2  1  0
  2  3  2  3
  3  4  1  0
  4  5  2  0
  5  6  1  0
  6  7  1  0
  6  8  2  0
  8  9  1  0
  8 10  1  0
 10 11  1  0
 11 12  1  0
 10 13  2  0
 13  4  1  0
M  END
$$$$
