
     RDKit          3D

 26 28  0  0  0  0  0  0  0  0999 V2000
  149.2427  143.8140  144.2716 C   0  0  0  0  0  0  0  0  0  0  0  0
  149.5620  145.0832  144.3665 C   0  0  0  0  0  0  0  0  0  0  0  0
  150.6283  145.4999  145.1603 N   0  0  0  0  0  0  0  0  0  0  0  0
  151.0966  146.7000  145.0672 C   0  0  0  0  0  0  0  0  0  0  0  0
  152.4209  146.9989  145.4139 N   0  0  0  0  0  0  0  0  0  0  0  0
  152.9668  148.1886  145.4344 C   0  0  0  0  0  0  0  0  0  0  0  0
  152.0995  149.2889  145.1299 C   0  0  0  0  0  0  0  0  0  0  0  0
  150.8691  149.0010  144.4736 C   0  0  0  0  0  0  0  0  0  0  0  0
  150.2883  149.9340  143.6915 C   0  0  0  0  0  0  0  0  0  0  0  0
  150.8971  151.2217  143.4804 C   0  0  0  0  0  0  0  0  0  0  0  0
  152.0673  151.5704  144.0477 C   0  0  0  0  0  0  0  0  0  0  0  0
  152.6193  152.9104  143.7466 C   0  0  0  0  0  0  0  0  0  0  0  0
  152.5228  153.9666  144.6093 C   0  0  0  0  0  0  0  0  0  0  0  0
  152.9968  155.2519  144.3049 C   0  0  0  0  0  0  0  0  0  0  0  0
  153.5914  155.4913  143.0949 C   0  0  0  0  0  0  0  0  0  0  0  0
  154.1824  157.0988  142.7319 Cl  0  0  0  0  0  0  0  0  0  0  0  0
  153.7068  154.4306  142.1915 C   0  0  0  0  0  0  0  0  0  0  0  0
  153.2217  153.1756  142.5352 C   0  0  0  0  0  0  0  0  0  0  0  0
  152.6477  150.6923  145.0488 C   0  0  0  0  0  0  0  0  0  0  0  0
  153.5578  150.9146  145.8736 C   0  0  0  0  0  0  0  0  0  0  0  0
  154.5865  151.1655  146.8059 C   0  0  0  0  0  0  0  0  0  0  0  0
  155.6424  151.9660  146.5235 C   0  0  0  0  0  0  0  0  0  0  0  0
  156.5750  152.2787  147.5121 C   0  0  0  0  0  0  0  0  0  0  0  0
  157.4357  152.5627  148.3963 C   0  0  0  0  0  0  0  0  0  0  0  0
  158.5988  152.9397  149.5709 Cl  0  0  0  0  0  0  0  0  0  0  0  0
  150.2737  147.7524  144.6091 O   0  0  0  0  0  0  0  0  0  0  0  0
  1  2  2  0
  2  3  1  0
  3  4  2  3
  4  5  1  0
  5  6  2  0
  6  7  1  0
  7  8  1  0
  8  9  2  0
  9 10  1  0
 10 11  2  0
 11 12  1  0
 12 13  2  0
 13 14  1  0
 14 15  2  0
 15 16  1  0
 15 17  1  0
 17 18  2  0
 11 19  1  0
 19 20  2  3
 20 21  1  0
 21 22  2  3
 22 23  1  0
 23 24  3  0
 24 25  1  0
  8 26  1  0
 26  4  1  0
 19  7  1  0
 18 12  1  0
M  END
$$$$
