
     RDKit          3D

 27 29  0  0  0  0  0  0  0  0999 V2000
   42.2513   31.2458   33.4226 C   0  0  0  0  0  0  0  0  0  0  0  0
   42.7950   32.3244   32.6881 O   0  0  0  0  0  0  0  0  0  0  0  0
   42.9453   32.1442   31.3019 C   0  0  0  0  0  0  0  0  0  0  0  0
   41.9612   32.5092   30.4152 C   0  0  0  0  0  0  0  0  0  0  0  0
   42.0732   32.3488   29.0624 C   0  0  0  0  0  0  0  0  0  0  0  0
   41.1095   32.7019   28.1422 O   0  0  0  0  0  0  0  0  0  0  0  0
   43.2328   31.7913   28.5514 C   0  0  0  0  0  0  0  0  0  0  0  0
   43.3994   31.6052   27.1989 C   0  0  0  0  0  0  0  0  0  0  0  0
   42.4956   31.9420   26.4089 O   0  0  0  0  0  0  0  0  0  0  0  0
   44.6102   31.0327   26.7905 C   0  0  0  0  0  0  0  0  0  0  0  0
   45.6001   30.6645   27.6422 C   0  0  0  0  0  0  0  0  0  0  0  0
   46.8709   30.0660   27.2717 C   0  0  0  0  0  0  0  0  0  0  0  0
   48.0160   30.8844   27.3573 C   0  0  0  0  0  0  0  0  0  0  0  0
   49.2726   30.4472   27.0254 C   0  0  0  0  0  0  0  0  0  0  0  0
   50.4154   31.2233   27.0982 O   0  0  0  0  0  0  0  0  0  0  0  0
   50.3013   32.5794   27.4353 C   0  0  0  0  0  0  0  0  0  0  0  0
   49.4242   29.1335   26.5833 C   0  0  0  0  0  0  0  0  0  0  0  0
   50.6887   28.6769   26.2449 O   0  0  0  0  0  0  0  0  0  0  0  0
   48.3546   28.2953   26.4790 C   0  0  0  0  0  0  0  0  0  0  0  0
   48.4389   26.9815   26.0477 O   0  0  0  0  0  0  0  0  0  0  0  0
   48.0460   26.6273   24.7607 C   0  0  0  0  0  0  0  0  0  0  0  0
   47.0905   28.8040   26.8335 C   0  0  0  0  0  0  0  0  0  0  0  0
   46.0038   27.9336   26.7085 O   0  0  0  0  0  0  0  0  0  0  0  0
   45.7852   27.1145   27.8732 C   0  0  0  0  0  0  0  0  0  0  0  0
   45.3560   30.8792   28.9388 O   0  0  0  0  0  0  0  0  0  0  0  0
   44.2512   31.4070   29.3893 C   0  0  0  0  0  0  0  0  0  0  0  0
   44.0855   31.5940   30.7732 C   0  0  0  0  0  0  0  0  0  0  0  0
  1  2  1  0
  2  3  1  0
  3  4  2  0
  4  5  1  0
  5  6  1  0
  5  7  2  0
  7  8  1  0
  8  9  2  0
  8 10  1  0
 10 11  2  0
 11 12  1  0
 12 13  2  0
 13 14  1  0
 14 15  1  0
 15 16  1  0
 14 17  2  0
 17 18  1  0
 17 19  1  0
 19 20  1  0
 20 21  1  0
 19 22  2  0
 22 23  1  0
 23 24  1  0
 11 25  1  0
 25 26  1  0
 26 27  2  0
 27  3  1  0
 26  7  1  0
 22 12  1  0
M  END
$$$$
