
     RDKit          3D

 18 20  0  0  0  0  0  0  0  0999 V2000
  147.1664  144.3708  145.9708 C   0  0  0  0  0  0  0  0  0  0  0  0
  146.2962  145.6128  145.9414 C   0  0  0  0  0  0  0  0  0  0  0  0
  147.1253  146.8048  146.2556 C   0  0  0  0  0  0  0  0  0  0  0  0
  146.9330  147.4697  147.4503 C   0  0  0  0  0  0  0  0  0  0  0  0
  147.7013  148.5947  147.7691 C   0  0  0  0  0  0  0  0  0  0  0  0
  148.6544  149.0369  146.8806 C   0  0  0  0  0  0  0  0  0  0  0  0
  149.4920  150.2008  147.1439 C   0  0  0  0  0  0  0  0  0  0  0  0
  150.4294  150.6920  146.2787 N   0  0  0  0  0  0  0  0  0  0  0  0
  151.0103  151.7558  146.8279 C   0  0  0  0  0  0  0  0  0  0  0  0
  152.0106  152.6342  146.4111 C   0  0  0  0  0  0  0  0  0  0  0  0
  152.4283  153.6781  147.2049 C   0  0  0  0  0  0  0  0  0  0  0  0
  151.8355  153.8393  148.4264 C   0  0  0  0  0  0  0  0  0  0  0  0
  152.2310  154.8962  149.2759 N   0  0  0  0  0  0  0  0  0  0  0  0
  150.8397  152.9662  148.8432 C   0  0  0  0  0  0  0  0  0  0  0  0
  150.4124  151.9165  148.0573 C   0  0  0  0  0  0  0  0  0  0  0  0
  149.4850  150.9656  148.2487 N   0  0  0  0  0  0  0  0  0  0  0  0
  148.8231  148.3564  145.7019 C   0  0  0  0  0  0  0  0  0  0  0  0
  148.0787  147.2415  145.3595 C   0  0  0  0  0  0  0  0  0  0  0  0
  1  2  1  0
  2  3  1  0
  3  4  2  0
  4  5  1  0
  5  6  2  0
  6  7  1  0
  7  8  2  0
  8  9  1  0
  9 10  2  0
 10 11  1  0
 11 12  2  0
 12 13  1  0
 12 14  1  0
 14 15  2  0
 15 16  1  0
  6 17  1  0
 17 18  2  0
 18  3  1  0
 16  7  1  0
 15  9  1  0
M  END
$$$$
