
     RDKit          3D

 18 20  0  0  0  0  0  0  0  0999 V2000
  152.4896  156.6853  152.6999 C   0  0  0  0  0  0  0  0  0  0  0  0
  152.3972  155.1844  152.8984 C   0  0  0  0  0  0  0  0  0  0  0  0
  151.4224  154.8880  153.9795 C   0  0  0  0  0  0  0  0  0  0  0  0
  150.2474  154.2310  153.6728 C   0  0  0  0  0  0  0  0  0  0  0  0
  149.3136  153.9405  154.6733 C   0  0  0  0  0  0  0  0  0  0  0  0
  149.5743  154.3152  155.9714 C   0  0  0  0  0  0  0  0  0  0  0  0
  148.6494  154.0467  157.0659 C   0  0  0  0  0  0  0  0  0  0  0  0
  147.3588  153.6266  156.9036 N   0  0  0  0  0  0  0  0  0  0  0  0
  146.7979  153.4782  158.1012 C   0  0  0  0  0  0  0  0  0  0  0  0
  145.5321  153.0822  158.5337 C   0  0  0  0  0  0  0  0  0  0  0  0
  145.2167  153.0166  159.8718 C   0  0  0  0  0  0  0  0  0  0  0  0
  146.1814  153.3518  160.7810 C   0  0  0  0  0  0  0  0  0  0  0  0
  145.9043  153.2999  162.1650 N   0  0  0  0  0  0  0  0  0  0  0  0
  147.4418  153.7462  160.3526 C   0  0  0  0  0  0  0  0  0  0  0  0
  147.7702  153.8160  159.0150 C   0  0  0  0  0  0  0  0  0  0  0  0
  148.9008  154.1631  158.3807 N   0  0  0  0  0  0  0  0  0  0  0  0
  150.7496  154.9663  156.2462 C   0  0  0  0  0  0  0  0  0  0  0  0
  151.6915  155.2670  155.2782 C   0  0  0  0  0  0  0  0  0  0  0  0
  1  2  1  0
  2  3  1  0
  3  4  2  0
  4  5  1  0
  5  6  2  0
  6  7  1  0
  7  8  2  0
  8  9  1  0
  9 10  2  0
 10 11  1  0
 11 12  2  0
 12 13  1  0
 12 14  1  0
 14 15  2  0
 15 16  1  0
  6 17  1  0
 17 18  2  0
 18  3  1  0
 16  7  1  0
 15  9  1  0
M  END
$$$$
