
     RDKit          3D

 28 31  0  0  0  0  0  0  0  0999 V2000
  151.0132  158.7062  154.2275 C   0  0  0  0  0  0  0  0  0  0  0  0
  150.8846  157.9636  155.5260 C   0  0  0  0  0  0  0  0  0  0  0  0
  150.5502  158.6265  156.6832 C   0  0  0  0  0  0  0  0  0  0  0  0
  150.4277  157.9644  157.8801 C   0  0  0  0  0  0  0  0  0  0  0  0
  150.6313  156.6223  157.9772 C   0  0  0  0  0  0  0  0  0  0  0  0
  150.5152  155.8769  159.2104 C   0  0  0  0  0  0  0  0  0  0  0  0
  151.5504  155.3604  159.7487 O   0  0  0  0  0  0  0  0  0  0  0  0
  149.2784  155.6800  159.8780 N   0  0  0  0  0  0  0  0  0  0  0  0
  149.2445  155.0568  161.1572 C   0  0  0  0  0  0  0  0  0  0  0  0
  150.0728  155.3074  162.2639 C   0  0  0  0  0  0  0  0  0  0  0  0
  149.6450  154.4758  163.2128 C   0  0  0  0  0  0  0  0  0  0  0  0
  148.6000  153.7556  162.6920 N   0  0  0  0  0  0  0  0  0  0  0  0
  148.3559  154.0981  161.4642 N   0  0  0  0  0  0  0  0  0  0  0  0
  147.3284  153.5391  160.6318 C   0  0  0  0  0  0  0  0  0  0  0  0
  146.5119  152.5309  161.0785 C   0  0  0  0  0  0  0  0  0  0  0  0
  145.5404  152.0393  160.2183 C   0  0  0  0  0  0  0  0  0  0  0  0
  145.4058  152.5591  158.9437 C   0  0  0  0  0  0  0  0  0  0  0  0
  144.1708  151.9273  157.8630 Cl  0  0  0  0  0  0  0  0  0  0  0  0
  146.2152  153.5592  158.4996 C   0  0  0  0  0  0  0  0  0  0  0  0
  147.1853  154.0577  159.3433 C   0  0  0  0  0  0  0  0  0  0  0  0
  150.3232  154.5012  164.5084 C   0  0  0  0  0  0  0  0  0  0  0  0
  151.3059  156.0231  164.3898 S   0  0  0  0  0  0  0  0  0  0  0  0
  151.1904  156.1945  162.5679 C   0  0  0  0  0  0  0  0  0  0  0  0
  150.9721  155.9280  156.8138 C   0  0  0  0  0  0  0  0  0  0  0  0
  151.0920  156.6026  155.6196 C   0  0  0  0  0  0  0  0  0  0  0  0
  151.4443  155.8565  154.4435 N   0  0  0  0  0  4  0  0  0  0  0  0
  151.6230  154.6322  154.4886 O   0  0  0  0  0  0  0  0  0  0  0  0
  151.5734  156.5549  153.2742 O   0  0  0  0  0  1  0  0  0  0  0  0
  1  2  1  0
  2  3  2  0
  3  4  1  0
  4  5  2  0
  5  6  1  0
  6  7  2  0
  6  8  1  0
  8  9  1  0
  9 10  2  0
 10 11  1  0
 11 12  2  0
 12 13  1  0
 13 14  1  0
 14 15  2  0
 15 16  1  0
 16 17  2  0
 17 18  1  0
 17 19  1  0
 19 20  2  0
 11 21  1  0
 21 22  1  0
 22 23  1  0
  5 24  1  0
 24 25  2  0
 25 26  1  0
 26 27  2  0
 26 28  1  0
 25  2  1  0
 13  9  1  0
 20 14  1  0
 23 10  1  0
M  CHG  2  26   1  28  -1
M  END
$$$$
