
     RDKit          3D

 22 22  0  0  0  0  0  0  0  0999 V2000
  128.8250  143.4088  142.9245 C   0  0  0  0  0  0  0  0  0  0  0  0
  128.5015  142.4847  143.8154 C   0  0  0  0  0  0  0  0  0  0  0  0
  128.2489  141.6168  144.7592 C   0  0  0  0  0  0  0  0  0  0  0  0
  127.9338  140.2841  144.3399 C   0  0  0  0  0  0  0  0  0  0  0  0
  127.4515  139.3422  145.1239 C   0  0  0  0  0  0  0  0  0  0  0  0
  127.5284  139.6864  146.5552 C   0  0  0  0  0  0  0  0  0  0  0  0
  126.2909  139.2046  147.3131 C   0  0  0  0  0  0  0  0  0  0  0  0
  126.6079  137.9543  147.8910 N   0  0  0  0  0  0  0  0  0  0  0  0
  126.7004  137.9112  149.2990 C   0  0  0  0  0  0  0  0  0  0  0  0
  125.2839  138.0876  149.8685 C   0  0  0  0  0  0  0  0  0  0  0  0
  124.7003  136.8600  150.1698 O   0  0  0  0  0  0  0  0  0  0  0  0
  126.2435  136.8219  147.2267 N   0  0  0  0  0  0  0  0  0  0  0  0
  126.5487  136.3141  145.9112 C   0  0  0  0  0  0  0  0  0  0  0  0
  126.5365  134.8731  145.8406 N   0  0  0  0  0  0  0  0  0  0  0  0
  126.3409  134.2281  144.5522 C   0  0  0  0  0  0  0  0  0  0  0  0
  124.9100  134.3103  144.1821 C   0  0  0  0  0  0  0  0  0  0  0  0
  123.9022  134.1454  145.0108 C   0  0  0  0  0  0  0  0  0  0  0  0
  122.5130  134.0944  144.5302 C   0  0  0  0  0  0  0  0  0  0  0  0
  122.1679  135.3364  143.7263 C   0  0  0  0  0  0  0  0  0  0  0  0
  121.3923  133.8831  145.8937 Cl  0  0  0  0  0  0  0  0  0  0  0  0
  126.8379  136.8648  144.7773 N   0  0  0  0  0  0  0  0  0  0  0  0
  126.9723  138.2159  144.3713 N   0  0  0  0  0  0  0  0  0  0  0  0
  1  2  2  0
  2  3  2  0
  3  4  1  0
  4  5  2  3
  5  6  1  0
  6  7  1  0
  7  8  1  0
  8  9  1  0
  9 10  1  0
 10 11  1  0
  8 12  1  0
 12 13  1  0
 13 14  1  0
 14 15  1  0
 15 16  1  0
 16 17  2  3
 17 18  1  0
 18 19  1  0
 18 20  1  0
 13 21  2  0
 21 22  1  0
 22  5  1  0
M  END
$$$$
