
     RDKit          3D

 17 18  0  0  0  0  0  0  0  0999 V2000
  125.8110  138.0158  149.0845 C   0  0  0  0  0  0  0  0  0  0  0  0
  126.3242  139.1410  148.4045 O   0  0  0  0  0  0  0  0  0  0  0  0
  126.8064  139.0618  147.1092 C   0  0  0  0  0  0  0  0  0  0  0  0
  126.9667  137.8210  146.5336 C   0  0  0  0  0  0  0  0  0  0  0  0
  127.4525  137.7398  145.2287 C   0  0  0  0  0  0  0  0  0  0  0  0
  127.6175  136.5443  144.6460 N   0  0  0  0  0  0  0  0  0  0  0  0
  128.0837  136.4392  143.3902 C   0  0  0  0  0  0  0  0  0  0  0  0
  128.2975  134.8293  142.6262 S   0  0  0  0  0  0  0  0  0  0  0  0
  127.8115  133.5533  143.7951 C   0  0  0  0  0  0  0  0  0  0  0  0
  128.3767  137.5826  142.7457 N   0  0  0  0  0  0  0  0  0  0  0  0
  128.2406  138.8042  143.2547 C   0  0  0  0  0  0  0  0  0  0  0  0
  128.5461  140.0030  142.5830 N   0  0  0  0  0  0  0  0  0  0  0  0
  127.7557  138.9060  144.5596 C   0  0  0  0  0  0  0  0  0  0  0  0
  127.5963  140.1509  145.1332 C   0  0  0  0  0  0  0  0  0  0  0  0
  127.1149  140.2149  146.4243 C   0  0  0  0  0  0  0  0  0  0  0  0
  126.9297  141.4320  147.0634 O   0  0  0  0  0  0  0  0  0  0  0  0
  127.2576  142.6143  146.3799 C   0  0  0  0  0  0  0  0  0  0  0  0
  1  2  1  0
  2  3  1  0
  3  4  2  0
  4  5  1  0
  5  6  2  0
  6  7  1  0
  7  8  1  0
  8  9  1  0
  7 10  2  0
 10 11  1  0
 11 12  1  0
 11 13  2  0
 13 14  1  0
 14 15  2  0
 15 16  1  0
 16 17  1  0
 15  3  1  0
 13  5  1  0
M  END
$$$$
