
     RDKit          3D

 26 28  0  0  0  0  0  0  0  0999 V2000
  116.3525  132.5081  126.0745 C   0  0  0  0  0  0  0  0  0  0  0  0
  115.6709  131.6013  125.0867 C   0  0  0  0  0  0  0  0  0  0  0  0
  114.8468  132.0986  124.1068 C   0  0  0  0  0  0  0  0  0  0  0  0
  114.2305  131.2491  123.2091 C   0  0  0  0  0  0  0  0  0  0  0  0
  113.3635  131.6875  122.1812 N   0  0  0  0  0  0  0  0  0  0  0  0
  113.1115  133.0744  122.0076 C   0  0  0  0  0  0  0  0  0  0  0  0
  113.7092  133.9815  122.8646 C   0  0  0  0  0  0  0  0  0  0  0  0
  113.5105  135.3365  122.7620 C   0  0  0  0  0  0  0  0  0  0  0  0
  112.6920  135.8548  121.7826 C   0  0  0  0  0  0  0  0  0  0  0  0
  112.4243  137.3047  121.6229 C   0  0  0  0  0  0  0  0  0  0  0  0
  111.0017  137.5262  121.6975 N   0  0  0  0  0  0  0  0  0  0  0  0
  110.2542  138.3264  120.8201 C   0  0  0  0  0  0  0  0  0  0  0  0
  110.8122  138.9499  119.8816 O   0  0  0  0  0  0  0  0  0  0  0  0
  108.8614  138.4172  121.0124 O   0  0  0  0  0  1  0  0  0  0  0  0
  112.0953  134.9189  120.9230 C   0  0  0  0  0  0  0  0  0  0  0  0
  112.2979  133.5741  121.0314 C   0  0  0  0  0  0  0  0  0  0  0  0
  114.4361  129.9088  123.2898 N   0  0  0  0  0  0  0  0  0  0  0  0
  113.9867  128.8828  122.5863 N   0  0  0  0  0  0  0  0  0  0  0  0
  114.5033  127.7389  123.0924 C   0  0  0  0  0  0  0  0  0  0  0  0
  114.1819  126.4047  122.5147 C   0  0  0  0  0  0  0  0  0  0  0  0
  113.6038  125.6670  123.5513 F   0  0  0  0  0  0  0  0  0  0  0  0
  113.3696  126.4833  121.4214 F   0  0  0  0  0  0  0  0  0  0  0  0
  115.3995  125.7925  122.2239 F   0  0  0  0  0  0  0  0  0  0  0  0
  115.2709  128.1025  124.1130 N   0  0  0  0  0  0  0  0  0  0  0  0
  115.2479  129.4442  124.2585 C   0  0  0  0  0  0  0  0  0  0  0  0
  115.8543  130.2638  125.1395 N   0  0  0  0  0  0  0  0  0  0  0  0
  1  2  1  0
  2  3  1  0
  3  4  2  0
  4  5  1  0
  5  6  1  0
  6  7  2  0
  7  8  1  0
  8  9  2  0
  9 10  1  0
 10 11  1  0
 11 12  1  0
 12 13  2  0
 12 14  1  0
  9 15  1  0
 15 16  2  0
  4 17  1  0
 17 18  1  0
 18 19  2  0
 19 20  1  0
 20 21  1  0
 20 22  1  0
 20 23  1  0
 19 24  1  0
 24 25  2  0
 25 26  1  0
 26  2  2  0
 16  6  1  0
 25 17  1  0
M  CHG  1  14  -1
M  END
$$$$
