
     RDKit          3D

 16 15  0  0  0  0  0  0  0  0999 V2000
  122.2315  118.5374  146.5984 C   0  0  0  0  0  0  0  0  0  0  0  0
  123.2381  117.6742  146.6810 C   0  0  0  0  0  0  0  0  0  0  0  0
  123.4988  117.0802  145.3344 C   0  0  1  0  0  0  0  0  0  0  0  0
  124.8543  116.4380  145.2592 C   0  0  0  0  0  0  0  0  0  0  0  0
  122.5317  116.1441  145.0295 O   0  0  0  0  0  0  0  0  0  0  0  0
  123.4718  118.2074  144.3111 C   0  0  0  0  0  0  0  0  0  0  0  0
  123.8602  117.5929  142.9652 C   0  0  0  0  0  0  0  0  0  0  0  0
  123.6963  118.6380  141.9234 C   0  0  0  0  0  0  0  0  0  0  0  0
  123.5393  118.5919  140.5864 C   0  0  0  0  0  0  0  0  0  0  0  0
  122.1451  118.3743  140.1444 C   0  0  0  0  0  0  0  0  0  0  0  0
  124.7386  118.7500  139.7284 C   0  0  0  0  0  0  0  0  0  0  0  0
  125.9584  119.2353  140.4415 C   0  0  0  0  0  0  0  0  0  0  0  0
  127.2202  119.1281  139.7076 C   0  0  0  0  0  0  0  0  0  0  0  0
  128.4210  119.5557  140.1441 C   0  0  0  0  0  0  0  0  0  0  0  0
  128.7610  120.3119  141.3834 C   0  0  0  0  0  0  0  0  0  0  0  0
  129.5599  119.2018  139.2240 C   0  0  0  0  0  0  0  0  0  0  0  0
  1  2  2  0
  2  3  1  0
  3  4  1  1
  3  5  1  0
  3  6  1  0
  6  7  1  0
  7  8  1  0
  8  9  2  0
  9 10  1  0
  9 11  1  0
 11 12  1  0
 12 13  1  0
 13 14  2  3
 14 15  1  0
 14 16  1  0
M  END
$$$$
