
     RDKit          3D

 16 15  0  0  0  0  0  0  0  0999 V2000
  110.3110  134.3682  154.1674 C   0  0  0  0  0  0  0  0  0  0  0  0
  110.6522  135.2418  153.2263 C   0  0  0  0  0  0  0  0  0  0  0  0
  111.8026  136.0676  153.7044 C   0  0  1  0  0  0  0  0  0  0  0  0
  113.0377  135.2390  153.9127 C   0  0  0  0  0  0  0  0  0  0  0  0
  112.0751  137.0755  152.8018 O   0  0  0  0  0  0  0  0  0  0  0  0
  111.4230  136.6657  155.0521 C   0  0  0  0  0  0  0  0  0  0  0  0
  112.5745  137.5817  155.4702 C   0  0  0  0  0  0  0  0  0  0  0  0
  112.1542  138.3123  156.6926 C   0  0  0  0  0  0  0  0  0  0  0  0
  112.7974  139.1359  157.5425 C   0  0  0  0  0  0  0  0  0  0  0  0
  112.0456  139.4434  158.7781 C   0  0  0  0  0  0  0  0  0  0  0  0
  114.1400  139.6368  157.1605 C   0  0  0  0  0  0  0  0  0  0  0  0
  115.0537  138.6031  156.5874 C   0  0  0  0  0  0  0  0  0  0  0  0
  116.4286  139.0312  156.3255 C   0  0  0  0  0  0  0  0  0  0  0  0
  117.4126  138.2538  155.8327 C   0  0  0  0  0  0  0  0  0  0  0  0
  118.7089  138.6511  155.2120 C   0  0  0  0  0  0  0  0  0  0  0  0
  117.1290  136.7784  155.9405 C   0  0  0  0  0  0  0  0  0  0  0  0
  1  2  2  0
  2  3  1  0
  3  4  1  1
  3  5  1  0
  3  6  1  0
  6  7  1  0
  7  8  1  0
  8  9  2  0
  9 10  1  0
  9 11  1  0
 11 12  1  0
 12 13  1  0
 13 14  2  3
 14 15  1  0
 14 16  1  0
M  END
$$$$
