
     RDKit          3D

 34 38  0  0  0  0  0  0  0  0999 V2000
    7.9267   32.3087   -1.1964 C   0  0  0  0  0  0  0  0  0  0  0  0
    7.1261   31.0411   -1.5509 C   0  0  0  0  0  0  0  0  0  0  0  0
    6.5069   30.5726   -0.2249 C   0  0  0  0  0  0  0  0  0  0  0  0
    8.1142   30.0213   -1.9852 C   0  0  0  0  0  0  0  0  0  0  0  0
    8.0635   29.7398   -3.4384 C   0  0  0  0  0  0  0  0  0  0  0  0
    9.0682   29.6079   -4.1834 O   0  0  0  0  0  0  0  0  0  0  0  0
    6.7228   29.6054   -4.0444 C   0  0  0  0  0  0  0  0  0  0  0  0
    5.7949   30.4313   -3.5910 C   0  0  0  0  0  0  0  0  0  0  0  0
    6.0908   31.4328   -2.5356 C   0  0  0  0  0  0  0  0  0  0  0  0
    4.4667   30.3405   -4.1559 N   0  0  0  0  0  0  0  0  0  0  0  0
    3.4869   31.2369   -3.6538 C   0  0  0  0  0  0  0  0  0  0  0  0
    2.6308   30.9709   -2.6311 C   0  0  0  0  0  0  0  0  0  0  0  0
    1.7102   31.9266   -2.2221 C   0  0  0  0  0  0  0  0  0  0  0  0
    1.6193   33.1677   -2.8196 C   0  0  0  0  0  0  0  0  0  0  0  0
    2.4950   33.4280   -3.8593 C   0  0  0  0  0  0  0  0  0  0  0  0
    2.4492   34.6401   -4.4867 F   0  0  0  0  0  0  0  0  0  0  0  0
    3.4125   32.4835   -4.2714 C   0  0  0  0  0  0  0  0  0  0  0  0
    4.1251   29.4071   -5.1699 C   0  0  0  0  0  0  0  0  0  0  0  0
    5.0731   28.6014   -5.5986 C   0  0  0  0  0  0  0  0  0  0  0  0
    4.6766   27.6466   -6.6525 C   0  0  0  0  0  0  0  0  0  0  0  0
    5.6049   27.0079   -7.2223 O   0  0  0  0  0  0  0  0  0  0  0  0
    3.2596   27.4722   -6.9976 C   0  0  0  0  0  0  0  0  0  0  0  0
    2.5197   28.8113   -6.9969 C   0  0  0  0  0  0  0  0  0  0  0  0
    3.0279   29.6205   -8.1406 C   0  0  0  0  0  0  0  0  0  0  0  0
    1.0350   28.4880   -7.1277 C   0  0  0  0  0  0  0  0  0  0  0  0
    2.7268   29.4235   -5.6551 C   0  0  0  0  0  0  0  0  0  0  0  0
    6.4760   28.5951   -5.1035 C   0  0  0  0  0  0  0  0  0  0  0  0
    7.4362   28.7760   -6.2448 C   0  0  0  0  0  0  0  0  0  0  0  0
    7.3135   29.7905   -7.1700 C   0  0  0  0  0  0  0  0  0  0  0  0
    8.1868   29.9607   -8.2136 C   0  0  0  0  0  0  0  0  0  0  0  0
    9.2511   29.0839   -8.3665 C   0  0  0  0  0  0  0  0  0  0  0  0
   10.4755   29.3145   -9.8210 Br  0  0  0  0  0  0  0  0  0  0  0  0
    9.3889   28.0693   -7.4561 C   0  0  0  0  0  0  0  0  0  0  0  0
    8.5117   27.9115   -6.4213 C   0  0  0  0  0  0  0  0  0  0  0  0
  1  2  1  0
  2  3  1  0
  2  4  1  0
  4  5  1  0
  5  6  2  0
  5  7  1  0
  7  8  2  0
  8  9  1  0
  8 10  1  0
 10 11  1  0
 11 12  2  0
 12 13  1  0
 13 14  2  0
 14 15  1  0
 15 16  1  0
 15 17  2  0
 10 18  1  0
 18 19  2  0
 19 20  1  0
 20 21  2  0
 20 22  1  0
 22 23  1  0
 23 24  1  0
 23 25  1  0
 23 26  1  0
 19 27  1  0
 27 28  1  0
 28 29  2  0
 29 30  1  0
 30 31  2  0
 31 32  1  0
 31 33  1  0
 33 34  2  0
  9  2  1  0
 17 11  1  0
 26 18  1  0
 34 28  1  0
 27  7  1  0
M  END
$$$$
