
     RDKit          3D

 24 25  0  0  0  0  0  0  0  0999 V2000
    4.2748   31.0715   -0.0770 C   0  0  0  0  0  0  0  0  0  0  0  0
    4.9305   31.2873   -1.3760 C   0  0  0  0  0  0  0  0  0  0  0  0
    4.7471   32.3833   -2.1012 C   0  0  0  0  0  0  0  0  0  0  0  0
    4.5483   32.0966   -3.3561 N   0  0  0  0  0  0  0  0  0  0  0  0
    3.5494   31.1959   -3.6876 N   0  0  0  0  0  0  0  0  0  0  0  0
    3.6344   30.1406   -4.4022 C   0  0  0  0  0  0  0  0  0  0  0  0
    2.3820   29.4231   -4.5471 N   0  0  0  0  0  0  0  0  0  0  0  0
    2.0764   28.5892   -5.6577 C   0  0  0  0  0  0  0  0  0  0  0  0
    2.4812   27.2600   -5.5973 C   0  0  0  0  0  0  0  0  0  0  0  0
    2.2433   26.3759   -6.6127 C   0  0  0  0  0  0  0  0  0  0  0  0
    1.5768   26.8423   -7.7251 C   0  0  0  0  0  0  0  0  0  0  0  0
    1.2476   25.7559   -9.0490 Cl  0  0  0  0  0  0  0  0  0  0  0  0
    1.1679   28.1656   -7.7977 C   0  0  0  0  0  0  0  0  0  0  0  0
    0.3238   28.7767   -9.1947 Cl  0  0  0  0  0  0  0  0  0  0  0  0
    1.4238   29.0256   -6.7594 C   0  0  0  0  0  0  0  0  0  0  0  0
    4.7701   29.6366   -5.0293 N   0  0  0  0  0  0  0  0  0  0  0  0
    6.0004   29.7952   -4.9887 C   0  0  0  0  0  0  0  0  0  0  0  0
    6.7801   28.9659   -5.9145 N   0  0  0  0  0  0  0  0  0  0  0  0
    6.1518   28.2164   -6.9758 C   0  0  0  0  0  0  0  0  0  0  0  0
    7.0240   28.1610   -8.1875 C   0  0  0  0  0  0  0  0  0  0  0  0
    7.1623   29.4349   -8.7345 O   0  0  0  0  0  0  0  0  0  0  0  0
    6.7894   30.6883   -4.1701 C   0  0  0  0  0  0  0  0  0  0  0  0
    6.7415   30.8850   -2.8719 C   0  0  0  0  0  0  0  0  0  0  0  0
    5.8441   30.2225   -1.9014 C   0  0  0  0  0  0  0  0  0  0  0  0
  1  2  1  0
  2  3  2  0
  3  4  2  0
  4  5  1  0
  5  6  2  0
  6  7  1  0
  7  8  1  0
  8  9  2  0
  9 10  1  0
 10 11  2  0
 11 12  1  0
 11 13  1  0
 13 14  1  0
 13 15  2  0
  6 16  1  0
 16 17  2  0
 17 18  1  0
 18 19  1  0
 19 20  1  0
 20 21  1  0
 17 22  1  0
 22 23  2  0
 23 24  1  0
 24  2  1  0
 15  8  1  0
M  END
$$$$
