
     RDKit          3D

 22 23  0  0  0  0  0  0  0  0999 V2000
  134.4677  116.8796   68.8262 C   0  0  0  0  0  0  0  0  0  0  0  0
  135.7828  116.4321   69.0691 O   0  0  0  0  0  0  0  0  0  0  0  0
  136.1412  115.5303   70.0200 C   0  0  0  0  0  0  0  0  0  0  0  0
  135.2069  114.7137   70.6089 C   0  0  0  0  0  0  0  0  0  0  0  0
  135.5350  113.7844   71.5798 C   0  0  0  0  0  0  0  0  0  0  0  0
  134.1631  112.6827   72.3504 Br  0  0  0  0  0  0  0  0  0  0  0  0
  136.8444  113.6616   71.9818 C   0  0  0  0  0  0  0  0  0  0  0  0
  137.2483  112.6585   73.0324 C   0  0  0  0  0  0  0  0  0  0  0  0
  138.4795  112.0507   72.5742 N   0  0  0  0  0  0  0  0  0  0  0  0
  139.3957  111.7627   73.6441 C   0  0  0  0  0  0  0  0  0  0  0  0
  139.7247  110.2721   73.5118 C   0  0  0  0  0  0  0  0  0  0  0  0
  138.8375  111.9831   75.0016 C   0  0  0  0  0  0  0  0  0  0  0  0
  139.0034  113.3404   75.4931 N   0  0  0  0  0  0  0  0  0  0  0  0
  139.4556  111.0080   75.9763 C   0  0  0  0  0  0  0  0  0  0  0  0
  140.6547  111.2772   76.5755 C   0  0  0  0  0  0  0  0  0  0  0  0
  141.2062  110.3865   77.4523 C   0  0  0  0  0  0  0  0  0  0  0  0
  140.5712  109.1876   77.7617 C   0  0  0  0  0  0  0  0  0  0  0  0
  139.3641  108.9309   77.1505 C   0  0  0  0  0  0  0  0  0  0  0  0
  138.8087  109.8291   76.2666 C   0  0  0  0  0  0  0  0  0  0  0  0
  137.7987  114.4649   71.4104 C   0  0  0  0  0  0  0  0  0  0  0  0
  137.4489  115.4019   70.4273 C   0  0  0  0  0  0  0  0  0  0  0  0
  138.3883  116.2278   69.8305 O   0  0  0  0  0  0  0  0  0  0  0  0
  1  2  1  0
  2  3  1  0
  3  4  2  0
  4  5  1  0
  5  6  1  0
  5  7  2  0
  7  8  1  0
  8  9  1  0
  9 10  1  0
 10 11  1  0
 10 12  1  0
 12 13  1  0
 12 14  1  0
 14 15  2  0
 15 16  1  0
 16 17  2  0
 17 18  1  0
 18 19  2  0
  7 20  1  0
 20 21  2  0
 21 22  1  0
 21  3  1  0
 19 14  1  0
M  END
$$$$
