
     RDKit          3D

 34 35  0  0  0  0  0  0  0  0999 V2000
   19.7202   62.1861   24.0818 C   0  0  0  0  0  0  0  0  0  0  0  0
   20.4365   62.5286   23.0926 N   0  0  0  0  0  0  0  0  0  0  0  0
   21.5894   63.3709   23.2188 C   0  0  0  0  0  0  0  0  0  0  0  0
   21.8829   64.2780   22.3140 C   0  0  0  0  0  0  0  0  0  0  0  0
   21.5157   64.1208   20.9427 N   0  0  0  0  0  0  0  0  0  0  0  0
   21.1388   65.2502   20.1858 C   0  0  0  0  0  0  0  0  0  0  0  0
   20.8959   65.1448   18.9061 C   0  0  0  0  0  0  0  0  0  0  0  0
   21.5338   65.9999   17.9394 C   0  0  0  0  0  0  0  0  0  0  0  0
   20.8959   66.3964   16.8581 C   0  0  0  0  0  0  0  0  0  0  0  0
   21.5913   67.1613   15.7984 C   0  0  0  0  0  0  0  0  0  0  0  0
   20.6306   67.3797   14.6835 C   0  0  0  0  0  0  0  0  0  0  0  0
   19.6108   68.1732   14.8291 C   0  0  0  0  0  0  0  0  0  0  0  0
   19.7032   69.3154   15.6945 N   0  0  0  0  0  0  0  0  0  0  0  0
   19.8591   70.4955   15.0702 O   0  0  0  0  0  0  0  0  0  0  0  0
   21.2493   70.6645   14.8360 C   0  0  0  0  0  0  0  0  0  0  0  0
   21.5203   72.1173   14.5371 C   0  0  0  0  0  0  0  0  0  0  0  0
   21.3077   72.5370   13.2048 N   0  0  0  0  0  0  0  0  0  0  0  0
   21.5367   73.8980   12.7770 C   0  0  0  0  0  0  0  0  0  0  0  0
   22.5697   74.2339   12.3119 N   0  0  0  0  0  0  0  0  0  0  0  0
   23.7538   74.5967   11.7830 C   0  0  0  0  0  0  0  0  0  0  0  0
   24.3093   73.4837   10.9025 C   0  0  0  0  0  0  0  0  0  0  0  0
   23.6913   72.3069   10.7752 N   0  0  0  0  0  0  0  0  0  0  0  0
   24.1653   71.3155    9.9667 C   0  0  0  0  0  0  0  0  0  0  0  0
   23.4704   70.0138    9.8671 C   0  0  0  0  0  0  0  0  0  0  0  0
   23.1135   69.4110   11.2052 C   0  0  0  0  0  0  0  0  0  0  0  0
   24.2683   68.7582   11.8051 N   0  0  0  0  0  0  0  0  0  0  0  0
   24.4701   69.2572   13.1495 C   0  0  0  0  0  0  0  0  0  0  0  0
   25.3239   71.5014    9.2391 C   0  0  0  0  0  0  0  0  0  0  0  0
   25.8015   70.5218    8.4152 C   0  0  0  0  0  0  0  0  0  0  0  0
   26.9566   70.7555    7.6982 C   0  0  0  0  0  0  0  0  0  0  0  0
   27.6009   71.9834    7.8350 C   0  0  0  0  0  0  0  0  0  0  0  0
   27.1058   72.9544    8.6652 C   0  0  0  0  0  0  0  0  0  0  0  0
   25.9547   72.7412    9.3891 C   0  0  0  0  0  0  0  0  0  0  0  0
   25.4383   73.6814   10.2023 N   0  0  0  0  0  0  0  0  0  0  0  0
  1  2  2  0
  2  3  1  0
  3  4  2  3
  4  5  1  0
  5  6  1  0
  6  7  2  3
  7  8  1  0
  8  9  2  3
  9 10  1  0
 10 11  1  0
 11 12  2  3
 12 13  1  0
 13 14  1  0
 14 15  1  0
 15 16  1  0
 16 17  1  0
 17 18  1  0
 18 19  2  3
 19 20  1  0
 20 21  1  0
 21 22  2  0
 22 23  1  0
 23 24  1  0
 24 25  1  0
 25 26  1  0
 26 27  1  0
 23 28  2  0
 28 29  1  0
 29 30  2  0
 30 31  1  0
 31 32  2  0
 32 33  1  0
 33 34  2  0
 34 21  1  0
 33 28  1  0
M  END
$$$$
