
     RDKit          3D

 15 14  0  0  0  0  0  0  0  0999 V2000
  129.0209  140.3158  143.8475 C   0  0  0  0  0  0  0  0  0  0  0  0
  128.1578  140.4769  142.8793 C   0  0  0  0  0  0  0  0  0  0  0  0
  127.0126  141.4111  143.0473 C   0  0  0  0  0  0  0  0  0  0  0  0
  127.1742  142.2463  144.3006 C   0  0  0  0  0  0  0  0  0  0  0  0
  128.2413  139.7426  141.6158 C   0  0  0  0  0  0  0  0  0  0  0  0
  129.2276  138.5973  141.5927 C   0  0  0  0  0  0  0  0  0  0  0  0
  128.7046  137.3539  142.1807 C   0  0  0  0  0  0  0  0  0  0  0  0
  127.9864  136.4370  141.5672 C   0  0  0  0  0  0  0  0  0  0  0  0
  127.4430  136.8087  140.1882 C   0  0  0  0  0  0  0  0  0  0  0  0
  127.7058  135.1369  142.1362 C   0  0  0  0  0  0  0  0  0  0  0  0
  127.4528  135.1841  143.6376 C   0  0  0  0  0  0  0  0  0  0  0  0
  125.9884  135.0503  143.8343 C   0  0  0  0  0  0  0  0  0  0  0  0
  125.4521  134.9714  145.0444 C   0  0  0  0  0  0  0  0  0  0  0  0
  126.2884  135.1102  146.2692 C   0  0  0  0  0  0  0  0  0  0  0  0
  123.9698  134.7371  145.1819 C   0  0  0  0  0  0  0  0  0  0  0  0
  1  2  2  0
  2  3  1  0
  3  4  1  0
  2  5  1  0
  5  6  1  0
  6  7  1  0
  7  8  2  0
  8  9  1  0
  8 10  1  0
 10 11  1  0
 11 12  1  0
 12 13  2  3
 13 14  1  0
 13 15  1  0
M  END
$$$$
