
     RDKit          3D

 22 23  0  0  0  0  0  0  0  0999 V2000
  165.1495  156.7752  169.4397 C   0  0  0  0  0  0  0  0  0  0  0  0
  164.0642  155.7445  169.2114 C   0  0  0  0  0  0  0  0  0  0  0  0
  164.5811  154.5416  168.5888 N   0  0  0  0  0  4  0  0  0  0  0  0
  165.1352  154.7639  167.2997 C   0  0  0  0  0  0  0  0  0  0  0  0
  164.0874  154.8219  166.2034 C   0  0  0  0  0  0  0  0  0  0  0  0
  163.5956  153.4952  168.5437 C   0  0  0  0  0  0  0  0  0  0  0  0
  163.3963  152.7213  169.7955 C   0  0  0  0  0  0  0  0  0  0  0  0
  161.8166  152.8951  170.6002 S   0  0  0  0  0  0  0  0  0  0  0  0
  160.9473  151.3096  170.8287 C   0  0  0  0  0  0  0  0  0  0  0  0
  159.6266  151.5268  171.5432 C   0  0  0  0  0  0  0  0  0  0  0  0
  159.5791  150.7431  172.7562 N   0  0  0  0  0  0  0  0  0  0  0  0
  158.3590  150.4245  173.4097 C   0  0  0  0  0  0  0  0  0  0  0  0
  157.1976  150.2690  172.6563 C   0  0  0  0  0  0  0  0  0  0  0  0
  156.0346  149.9311  173.2722 C   0  0  0  0  0  0  0  0  0  0  0  0
  155.9605  149.7385  174.5917 N   0  0  0  0  0  0  0  0  0  0  0  0
  157.0648  149.8834  175.3245 C   0  0  0  0  0  0  0  0  0  0  0  0
  157.0032  149.6895  176.6909 C   0  0  0  0  0  0  0  0  0  0  0  0
  158.0949  149.8244  177.4969 C   0  0  0  0  0  0  0  0  0  0  0  0
  157.9963  149.5722  179.2477 Cl  0  0  0  0  0  0  0  0  0  0  0  0
  159.2880  150.1606  176.9465 C   0  0  0  0  0  0  0  0  0  0  0  0
  159.3919  150.3635  175.5830 C   0  0  0  0  0  0  0  0  0  0  0  0
  158.2876  150.2255  174.7789 C   0  0  0  0  0  0  0  0  0  0  0  0
  1  2  1  0
  2  3  1  0
  3  4  1  0
  4  5  1  0
  3  6  1  0
  6  7  1  0
  7  8  1  0
  8  9  1  0
  9 10  1  0
 10 11  1  0
 11 12  1  0
 12 13  2  0
 13 14  1  0
 14 15  2  0
 15 16  1  0
 16 17  2  0
 17 18  1  0
 18 19  1  0
 18 20  2  0
 20 21  1  0
 21 22  2  0
 22 12  1  0
 22 16  1  0
M  CHG  1   3   1
M  END
$$$$
