
     RDKit          3D

 11 11  0  0  0  0  0  0  0  0999 V2000
  146.9707  144.5457  144.7155 C   0  0  0  0  0  0  0  0  0  0  0  0
  147.7490  143.9675  145.5866 C   0  0  0  0  0  0  0  0  0  0  0  0
  149.1877  144.2622  145.8018 C   0  0  0  0  0  0  0  0  0  0  0  0
  149.5630  145.5269  145.4388 O   0  0  0  0  0  0  0  0  0  0  0  0
  150.7561  145.8958  145.9979 C   0  0  0  0  0  0  0  0  0  0  0  0
  151.8193  145.8424  144.9236 C   0  0  0  0  0  0  0  0  0  0  0  0
  151.1744  145.6610  143.5492 C   0  0  0  0  0  0  0  0  0  0  0  0
  150.0088  146.5452  143.5345 N   0  0  0  0  0  0  0  0  0  0  0  0
  149.2482  146.2170  142.3504 C   0  0  0  0  0  0  0  0  0  0  0  0
  148.3197  145.0784  142.7050 C   0  0  0  0  0  0  0  0  0  0  0  0
  147.3554  145.6072  143.7676 C   0  0  0  0  0  0  0  0  0  0  0  0
  1  2  2  0
  2  3  1  0
  3  4  1  0
  4  5  1  0
  5  6  1  0
  6  7  1  0
  7  8  1  0
  8  9  1  0
  9 10  1  0
 10 11  1  0
 11  1  1  0
M  END
$$$$
