
     RDKit          3D

  8  7  0  0  0  0  0  0  0  0999 V2000
    1.2550   -4.4327  -57.2572 C   0  0  0  0  0  0  0  0  0  0  0  0
    0.8756   -4.1989  -58.6644 C   0  0  0  0  0  0  0  0  0  0  0  0
    0.2654   -5.1035  -59.3944 C   0  0  0  0  0  0  0  0  0  0  0  0
   -0.1409   -4.9483  -60.7543 C   0  0  0  0  0  0  0  0  0  0  0  0
   -0.7373   -5.9811  -61.3307 C   0  0  0  0  0  0  0  0  0  0  0  0
   -1.0188   -7.0785  -61.8586 O   0  0  0  0  0  3  0  0  0  0  0  0
    0.0281   -8.0033  -62.0994 C   0  0  0  0  0  0  0  0  0  0  0  0
   -0.4427   -9.2122  -63.3172 Cl  0  0  0  0  0  0  0  0  0  0  0  0
  1  2  1  0
  2  3  2  3
  3  4  1  0
  4  5  2  0
  5  6  2  0
  6  7  1  0
  7  8  1  0
M  CHG  1   6   1
M  END
$$$$
