
     RDKit          3D

 23 23  0  0  0  0  0  0  0  0999 V2000
    8.6452    9.4002    2.8379 O   0  0  0  0  0  0  0  0  0  0  0  0
    8.5265    9.2773    4.2168 C   0  0  0  0  0  0  0  0  0  0  0  0
    9.7915    9.8245    4.8878 C   0  0  0  0  0  0  0  0  0  0  0  0
   10.9568    9.0774    4.5814 N   0  0  0  0  0  0  0  0  0  0  0  0
   11.2877    7.8450    5.2770 C   0  0  0  0  0  0  0  0  0  0  0  0
   12.5506    7.6201    5.5824 N   0  0  0  0  0  0  0  0  0  0  0  0
   12.9577    6.4346    6.2751 C   0  0  0  0  0  0  0  0  0  0  0  0
   13.8859    5.5623    5.6207 N   0  0  0  0  0  0  0  0  0  0  0  0
   15.1486    6.1787    5.2367 C   0  0  0  0  0  0  0  0  0  0  0  0
   15.7297    7.0087    6.0614 C   0  0  0  0  0  0  0  0  0  0  0  0
   16.3988    6.7043    7.2844 C   0  0  0  0  0  0  0  0  0  0  0  0
   16.0884    7.2471    8.4613 C   0  0  0  0  0  0  0  0  0  0  0  0
   15.3408    8.8608    8.4262 Cl  0  0  0  0  0  0  0  0  0  0  0  0
   16.2867    6.6571    9.7792 C   0  0  0  0  0  0  0  0  0  0  0  0
   18.0358    6.4384   10.1334 Cl  0  0  0  0  0  0  0  0  0  0  0  0
   15.7570    5.8821    3.9268 C   0  0  0  0  0  0  0  0  0  0  0  0
   17.5304    6.1322    4.1434 S   0  0  0  0  0  1  0  0  0  0  0  0
   13.6219    4.1827    5.3854 C   0  0  0  0  0  0  0  0  0  0  0  0
   12.6685    3.6439    4.6581 C   0  0  0  0  0  0  0  0  0  0  0  0
   11.6143    4.2187    3.8797 C   0  0  0  0  0  0  0  0  0  0  0  0
   10.5949    4.9977    4.0119 C   0  0  0  0  0  0  0  0  0  0  0  0
    9.9652    5.7290    5.0727 C   0  0  0  0  0  0  0  0  0  0  0  0
   10.2248    6.9134    5.6194 C   0  0  0  0  0  0  0  0  0  0  0  0
  1  2  1  0
  2  3  1  0
  3  4  1  0
  4  5  1  0
  5  6  2  0
  6  7  1  0
  7  8  1  0
  8  9  1  0
  9 10  2  3
 10 11  1  0
 11 12  2  3
 12 13  1  0
 12 14  1  0
 14 15  1  0
  9 16  1  0
 16 17  1  0
  8 18  1  0
 18 19  2  0
 19 20  1  0
 20 21  2  0
 21 22  1  0
 22 23  2  0
 23  5  1  0
M  CHG  1  17   1
M  RAD  1  17   3
M  END
$$$$
