
     RDKit          3D

 26 26  0  0  0  0  0  0  0  0999 V2000
    6.9171   27.1510   -4.9170 C   0  0  0  0  0  0  0  0  0  0  0  0
    5.8974   27.8588   -5.6224 N   0  0  0  0  0  0  0  0  0  0  0  0
    4.7573   28.1160   -4.8635 N   0  0  0  0  0  0  0  0  0  0  0  0
    4.8250   28.9747   -3.8013 O   0  0  0  0  0  0  0  0  0  0  0  0
    5.9092   29.8166   -3.9825 C   0  0  0  0  0  0  0  0  0  0  0  0
    5.6813   31.1432   -3.2845 C   0  0  0  0  0  0  0  0  0  0  0  0
    4.1926   31.4284   -3.3785 C   0  0  0  0  0  0  0  0  0  0  0  0
    3.7931   32.6785   -2.7260 C   0  0  0  0  0  0  0  0  0  0  0  0
    4.3062   33.1089   -1.6012 C   0  0  0  0  0  0  0  0  0  0  0  0
    4.6844   32.0408   -0.2475 Cl  0  0  0  0  0  0  0  0  0  0  0  0
    4.6190   34.5609   -1.3660 C   0  0  0  0  0  0  0  0  0  0  0  0
    5.6481   34.7339    0.0518 Cl  0  0  0  0  0  0  0  0  0  0  0  0
    3.7913   31.3023   -4.7484 N   0  0  0  0  0  0  0  0  0  0  0  0
    2.3503   31.0798   -4.7725 C   0  0  0  0  0  0  0  0  0  0  0  0
    1.9360   30.3465   -5.9248 N   0  0  0  0  0  0  0  0  0  0  0  0
    1.8670   29.0854   -6.0631 C   0  0  0  0  0  0  0  0  0  0  0  0
    1.4317   28.5251   -7.2837 N   0  0  0  0  0  0  0  0  0  0  0  0
    0.4473   29.1460   -8.1457 C   0  0  0  0  0  0  0  0  0  0  0  0
   -0.7904   28.3293   -8.2966 C   0  0  0  0  0  0  0  0  0  0  0  0
   -0.6084   27.3613   -9.2653 O   0  0  0  0  0  0  0  0  0  0  0  0
    2.2394   28.1894   -4.9539 C   0  0  0  0  0  0  0  0  0  0  0  0
    3.5225   27.4920   -5.1850 C   0  0  0  0  0  0  0  0  0  0  0  0
    3.5458   26.3015   -5.6833 N   0  0  0  0  0  0  0  0  0  0  0  0
    2.5628   25.7825   -6.5349 C   0  0  0  0  0  0  0  0  0  0  0  0
    2.9420   25.2571   -7.6792 C   0  0  0  0  0  0  0  0  0  0  0  0
    3.0986   24.6724   -8.8065 N   0  0  0  0  0  0  0  0  0  0  0  0
  1  2  1  0
  2  3  1  0
  3  4  1  0
  4  5  1  0
  5  6  1  0
  6  7  1  0
  7  8  1  0
  8  9  2  3
  9 10  1  0
  9 11  1  0
 11 12  1  0
  7 13  1  0
 13 14  1  0
 14 15  1  0
 15 16  2  0
 16 17  1  0
 17 18  1  0
 18 19  1  0
 19 20  1  0
 16 21  1  0
 21 22  1  0
 22 23  2  3
 23 24  1  0
 24 25  2  0
 25 26  2  0
 22  3  1  0
M  END
$$$$
