
     RDKit          3D

 39 39  0  0  0  0  0  0  0  0999 V2000
  116.3528  146.4251  141.1052 C   0  0  0  0  0  0  0  0  0  0  0  0
  117.3178  147.4194  140.5467 C   0  0  0  0  0  0  0  0  0  0  0  0
  118.7477  146.9344  140.7969 C   0  0  0  0  0  0  0  0  0  0  0  0
  119.0529  147.3066  142.1406 N   0  0  0  0  0  0  0  0  0  0  0  0
  120.1963  146.9006  142.7995 C   0  0  0  0  0  0  0  0  0  0  0  0
  120.6631  146.9863  143.9545 C   0  0  0  0  0  0  0  0  0  0  0  0
  121.7972  146.5010  144.6091 C   0  0  0  0  0  0  0  0  0  0  0  0
  121.8521  146.5638  146.0189 C   0  0  0  0  0  0  0  0  0  0  0  0
  122.7750  146.3724  146.7274 C   0  0  0  0  0  0  0  0  0  0  0  0
  123.9175  146.1584  147.6003 C   0  0  0  0  0  0  0  0  0  0  0  0
  124.9163  145.9741  148.3651 O   0  0  0  0  0  0  0  0  0  0  0  0
  125.8198  145.0760  148.5471 O   0  0  0  0  0  0  0  0  0  0  0  0
  127.1527  145.3161  148.8419 C   0  0  0  0  0  0  0  0  0  0  0  0
  127.6725  146.6061  148.9251 C   0  0  0  0  0  0  0  0  0  0  0  0
  129.0160  146.6788  149.1882 C   0  0  0  0  0  0  0  0  0  0  0  0
  129.8176  145.6454  149.3857 C   0  0  0  0  0  0  0  0  0  0  0  0
  129.2686  144.3527  149.3144 C   0  0  0  0  0  0  0  0  0  0  0  0
  127.9473  144.1928  149.0408 C   0  0  0  0  0  0  0  0  0  0  0  0
  127.4282  142.9004  149.0902 N   0  0  0  0  0  0  0  0  0  0  0  0
  127.9746  141.7483  149.2142 C   0  0  0  0  0  0  0  0  0  0  0  0
  128.5296  141.4916  150.5817 C   0  0  0  0  0  0  0  0  0  0  0  0
  127.8889  142.2475  151.6212 N   0  0  0  0  0  0  0  0  0  0  0  0
  128.3082  143.5263  151.9885 C   0  0  0  0  0  0  0  0  0  0  0  0
  127.7786  144.3780  152.7854 C   0  0  0  0  0  0  0  0  0  0  0  0
  128.2112  145.7151  153.0663 C   0  0  0  0  0  0  0  0  0  0  0  0
  127.4602  146.5212  153.7882 C   0  0  0  0  0  0  0  0  0  0  0  0
  126.7743  147.5637  154.1577 C   0  0  0  0  0  0  0  0  0  0  0  0
  126.0161  148.6287  154.1246 N   0  0  0  0  0  0  0  0  0  0  0  0
  128.1364  140.8156  148.1623 N   0  0  0  0  0  0  0  0  0  0  0  0
  128.2328  141.2378  146.8137 C   0  0  0  0  0  0  0  0  0  0  0  0
  128.3807  140.5740  145.7556 C   0  0  0  0  0  0  0  0  0  0  0  0
  126.8423  140.8810  144.7950 C   0  0  0  0  0  0  0  0  0  0  0  0
  127.1621  139.9841  143.9303 C   0  0  0  0  0  0  0  0  0  0  0  0
  126.2059  138.5255  145.1933 Cl  0  0  0  0  0  0  0  0  0  0  0  0
  127.4643  139.1034  143.1023 O   0  0  0  0  0  0  0  0  0  0  0  0
  127.8456  139.0652  141.7693 C   0  0  0  0  0  0  0  0  0  0  0  0
  127.9416  137.6434  141.2435 C   0  0  0  0  0  0  0  0  0  0  0  0
  128.1646  137.5953  139.8185 N   0  0  0  0  0  0  0  0  0  0  0  0
  128.1912  136.1961  139.3518 C   0  0  0  0  0  0  0  0  0  0  0  0
  1  2  1  0
  2  3  1  0
  3  4  1  0
  4  5  1  0
  5  6  2  3
  6  7  1  0
  7  8  2  3
  8  9  1  0
  9 10  3  0
 10 11  1  0
 11 12  1  0
 12 13  1  0
 13 14  2  0
 14 15  1  0
 15 16  2  0
 16 17  1  0
 17 18  2  0
 18 19  1  0
 19 20  2  3
 20 21  1  0
 21 22  1  0
 22 23  1  0
 23 24  2  3
 24 25  1  0
 25 26  2  0
 26 27  2  0
 27 28  2  0
 20 29  1  0
 29 30  1  0
 30 31  2  3
 31 32  1  0
 32 33  2  3
 33 34  1  0
 33 35  1  0
 35 36  1  0
 36 37  1  0
 37 38  1  0
 38 39  1  0
 18 13  1  0
M  END
$$$$
