
     RDKit          3D

 26 28  0  0  0  0  0  0  0  0999 V2000
  126.1435  136.6526  142.8405 C   0  0  0  0  0  0  0  0  0  0  0  0
  127.4687  137.0907  143.3712 C   0  0  0  0  0  0  0  0  0  0  0  0
  127.7709  136.5865  144.7588 C   0  0  0  0  0  0  0  0  0  0  0  0
  127.3273  137.4587  145.7931 N   0  0  0  0  0  0  0  0  0  0  0  0
  126.3124  137.2330  146.6395 C   0  0  0  0  0  0  0  0  0  0  0  0
  125.4437  136.1703  146.7671 C   0  0  0  0  0  0  0  0  0  0  0  0
  124.4565  136.1354  147.7170 C   0  0  0  0  0  0  0  0  0  0  0  0
  124.3612  137.2234  148.5578 C   0  0  0  0  0  0  0  0  0  0  0  0
  125.1972  138.3035  148.4744 C   0  0  0  0  0  0  0  0  0  0  0  0
  126.1824  138.3163  147.5112 C   0  0  0  0  0  0  0  0  0  0  0  0
  127.1527  139.1604  147.1334 N   0  0  0  0  0  0  0  0  0  0  0  0
  127.3662  140.4552  147.8121 C   0  0  0  0  0  0  0  0  0  0  0  0
  127.5288  140.2753  149.2716 C   0  0  1  0  0  0  0  0  0  0  0  0
  128.2893  139.1139  149.5493 O   0  0  0  0  0  0  0  0  0  0  0  0
  128.1645  141.4109  150.0157 C   0  0  0  0  0  0  0  0  0  0  0  0
  127.9182  142.6738  149.6812 O   0  0  0  0  0  0  0  0  0  0  0  0
  127.4761  143.8577  150.0710 C   0  0  0  0  0  0  0  0  0  0  0  0
  126.5165  144.6459  149.4744 C   0  0  0  0  0  0  0  0  0  0  0  0
  126.1680  145.8515  150.0091 C   0  0  0  0  0  0  0  0  0  0  0  0
  126.7329  146.3566  151.1537 C   0  0  0  0  0  0  0  0  0  0  0  0
  126.2670  147.9031  151.8148 Cl  0  0  0  0  0  0  0  0  0  0  0  0
  127.6920  145.5908  151.7696 C   0  0  0  0  0  0  0  0  0  0  0  0
  128.0538  144.3843  151.2508 C   0  0  0  0  0  0  0  0  0  0  0  0
  129.2885  143.4682  152.1007 Cl  0  0  0  0  0  0  0  0  0  0  0  0
  127.8380  138.6599  146.1138 C   0  0  0  0  0  0  0  0  0  0  0  0
  128.8294  139.2695  145.5576 N   0  0  0  0  0  0  0  0  0  0  0  0
  1  2  1  0
  2  3  1  0
  3  4  1  0
  4  5  1  0
  5  6  2  0
  6  7  1  0
  7  8  2  0
  8  9  1  0
  9 10  2  0
 10 11  1  0
 11 12  1  0
 12 13  1  0
 13 14  1  6
 13 15  1  0
 15 16  1  0
 16 17  1  0
 17 18  2  0
 18 19  1  0
 19 20  2  0
 20 21  1  0
 20 22  1  0
 22 23  2  0
 23 24  1  0
 11 25  1  0
 25 26  2  0
 25  4  1  0
 10  5  1  0
 23 17  1  0
M  END
$$$$
