
     RDKit          3D

 22 23  0  0  0  0  0  0  0  0999 V2000
  126.9210  133.8778   77.6911 C   0  0  0  0  0  0  0  0  0  0  0  0
  127.2883  132.7760   78.6230 C   0  0  0  0  0  0  0  0  0  0  0  0
  127.3129  132.2691   79.6504 C   0  0  0  0  0  0  0  0  0  0  0  0
  126.0195  130.5232   79.4777 C   0  0  0  0  0  0  0  0  0  0  0  0
  126.0131  130.6214   80.1169 P   0  0  0  0  0  6  0  0  0  0  0  0
  126.0093  130.7032   80.7117 C   0  0  0  0  0  0  0  0  0  0  0  0
  126.0080  130.7662   81.2365 N   0  0  0  0  0  0  0  0  0  0  0  0
  125.7997  129.6019   82.5338 C   0  0  0  0  0  0  0  0  0  0  0  0
  127.2480  129.6751   82.9113 C   0  0  0  0  0  0  0  0  0  0  0  0
  127.6811  128.4774   83.4745 O   0  0  0  0  0  0  0  0  0  0  0  0
  125.7688  129.0285   80.0241 N   0  0  0  0  0  0  0  0  0  0  0  0
  125.7944  128.9406   78.6767 C   0  0  0  0  0  0  0  0  0  0  0  0
  125.5241  127.7679   77.8897 N   0  0  0  0  0  0  0  0  0  0  0  0
  125.8428  127.7806   76.5308 C   0  0  0  0  0  0  0  0  0  0  0  0
  126.5048  126.6888   75.9648 C   0  0  0  0  0  0  0  0  0  0  0  0
  126.8825  126.6112   74.6524 C   0  0  0  0  0  0  0  0  0  0  0  0
  126.5978  127.6686   73.8389 C   0  0  0  0  0  0  0  0  0  0  0  0
  127.0882  127.5705   72.1396 Cl  0  0  0  0  0  0  0  0  0  0  0  0
  125.9429  128.7876   74.3338 C   0  0  0  0  0  0  0  0  0  0  0  0
  125.6266  130.1075   73.2166 Cl  0  0  0  0  0  0  0  0  0  0  0  0
  125.5719  128.8363   75.6651 C   0  0  0  0  0  0  0  0  0  0  0  0
  126.0380  130.2464   77.6709 N   0  0  0  0  0  0  0  0  0  0  0  0
  1  2  1  0
  2  3  2  3
  3  4  1  0
  4  5  2  0
  5  6  3  0
  6  7  1  0
  7  8  1  0
  8  9  1  0
  9 10  1  0
  7 11  1  0
 11 12  1  0
 12 13  1  0
 13 14  1  0
 14 15  2  0
 15 16  1  0
 16 17  2  0
 17 18  1  0
 17 19  1  0
 19 20  1  0
 19 21  2  0
 12 22  2  0
 22  5  1  0
 21 14  1  0
M  CHG  1   5  -1
M  END
$$$$
