
     RDKit          3D

 21 22  0  0  0  0  0  0  0  0999 V2000
  166.8851  155.2572  165.7703 C   0  0  0  0  0  0  0  0  0  0  0  0
  166.3111  154.0872  166.5219 C   0  0  0  0  0  0  0  0  0  0  0  0
  165.3031  154.5961  167.5590 C   0  0  0  0  0  0  0  0  0  0  0  0
  165.9930  155.6632  168.3777 C   0  0  0  0  0  0  0  0  0  0  0  0
  164.9175  153.1886  168.6302 S   0  0  0  0  0  4  0  0  0  0  0  0
  164.2827  152.0624  167.8661 O   0  0  0  0  0  0  0  0  0  0  0  0
  163.9834  153.7535  169.9385 O   0  0  0  0  0  0  0  0  0  0  0  0
  162.9969  153.0423  170.5636 C   0  0  0  0  0  0  0  0  0  0  0  0
  161.9768  152.4830  169.8336 C   0  0  0  0  0  0  0  0  0  0  0  0
  160.9597  151.7516  170.4630 C   0  0  0  0  0  0  0  0  0  0  0  0
  160.9937  151.5999  171.8198 C   0  0  0  0  0  0  0  0  0  0  0  0
  159.9725  150.8615  172.4839 N   0  0  0  0  0  0  0  0  0  0  0  0
  159.7980  151.0568  173.8806 C   0  0  0  0  0  0  0  0  0  0  0  0
  160.7153  151.4860  174.6377 O   0  0  0  0  0  0  0  0  0  0  0  0
  158.4938  150.7547  174.5185 C   0  0  0  0  0  0  0  0  0  0  0  0
  157.2889  150.5341  173.9012 C   0  0  0  0  0  0  0  0  0  0  0  0
  156.2384  150.2776  174.6868 C   0  0  0  0  0  0  0  0  0  0  0  0
  156.4442  150.2549  176.0360 C   0  0  0  0  0  0  0  0  0  0  0  0
  158.1093  150.5945  176.1718 S   0  0  0  0  0  0  0  0  0  0  0  0
  162.0054  152.1504  172.5773 C   0  0  0  0  0  0  0  0  0  0  0  0
  163.0129  152.8784  171.9262 C   0  0  0  0  0  0  0  0  0  0  0  0
  1  2  1  0
  2  3  1  0
  3  4  1  0
  3  5  1  0
  5  6  2  0
  5  7  1  0
  7  8  1  0
  8  9  2  0
  9 10  1  0
 10 11  2  0
 11 12  1  0
 12 13  1  0
 13 14  2  0
 13 15  1  0
 15 16  2  0
 16 17  1  0
 17 18  2  0
 18 19  1  0
 11 20  1  0
 20 21  2  0
 21  8  1  0
 19 15  1  0
M  END
$$$$
