
     RDKit          3D

 22 23  0  0  0  0  0  0  0  0999 V2000
  151.8959  142.3396  143.1171 C   0  0  0  0  0  0  0  0  0  0  0  0
  150.9624  143.2267  142.4005 C   0  0  0  0  0  0  0  0  0  0  0  0
  151.1865  143.2459  140.9137 C   0  0  0  0  0  0  0  0  0  0  0  0
  151.4031  143.2903  139.4628 N   0  0  0  0  0  0  0  0  0  0  0  0
  151.3867  144.6100  142.6664 O   0  0  0  0  0  0  0  0  0  0  0  0
  151.0030  145.3536  143.7404 C   0  0  0  0  0  0  0  0  0  0  0  0
  149.9637  145.1884  144.6113 C   0  0  0  0  0  0  0  0  0  0  0  0
  149.7614  146.0105  145.7425 C   0  0  0  0  0  0  0  0  0  0  0  0
  150.6447  147.0116  146.0472 C   0  0  0  0  0  0  0  0  0  0  0  0
  150.5140  148.0515  147.0902 C   0  0  0  0  0  0  0  0  0  0  0  0
  150.2591  149.2831  146.4170 N   0  0  0  0  0  0  0  0  0  0  0  0
  150.3710  150.4962  147.1948 C   0  0  0  0  0  0  0  0  0  0  0  0
  151.2094  151.4777  146.5917 C   0  0  0  0  0  0  0  0  0  0  0  0
  152.5286  151.0039  146.4145 O   0  0  0  0  0  0  0  0  0  0  0  0
  151.3126  152.7912  147.2964 C   0  0  0  0  0  0  0  0  0  0  0  0
  150.5663  153.0093  148.4133 C   0  0  0  0  0  0  0  0  0  0  0  0
  151.0810  153.9892  149.3329 C   0  0  0  0  0  0  0  0  0  0  0  0
  152.2760  154.6142  149.0306 C   0  0  0  0  0  0  0  0  0  0  0  0
  152.9978  154.4947  147.9076 C   0  0  0  0  0  0  0  0  0  0  0  0
  152.5015  153.5708  147.0233 C   0  0  0  0  0  0  0  0  0  0  0  0
  151.7580  147.1587  145.1465 C   0  0  0  0  0  0  0  0  0  0  0  0
  151.9529  146.4184  144.0269 C   0  0  0  0  0  0  0  0  0  0  0  0
  1  2  1  0
  2  3  1  0
  3  4  3  0
  2  5  1  0
  5  6  1  0
  6  7  2  0
  7  8  1  0
  8  9  2  0
  9 10  1  0
 10 11  1  0
 11 12  1  0
 12 13  1  0
 13 14  1  0
 13 15  1  0
 15 16  2  0
 16 17  1  0
 17 18  2  0
 18 19  1  0
 19 20  2  0
  9 21  1  0
 21 22  2  0
 22  6  1  0
 20 15  1  0
M  END
$$$$
