
     RDKit          3D

 29 32  0  0  0  0  0  0  0  0999 V2000
  -18.9019  -11.7620   -9.2091 C   0  0  0  0  0  0  0  0  0  0  0  0
  -18.7784  -12.9423   -8.4449 O   0  0  0  0  0  0  0  0  0  0  0  0
  -17.5810  -13.1806   -7.7806 C   0  0  0  0  0  0  0  0  0  0  0  0
  -16.5713  -13.9530   -8.3015 C   0  0  0  0  0  0  0  0  0  0  0  0
  -15.4029  -14.1541   -7.5936 C   0  0  0  0  0  0  0  0  0  0  0  0
  -15.2333  -13.5816   -6.3526 C   0  0  0  0  0  0  0  0  0  0  0  0
  -14.0605  -13.7482   -5.5759 N   0  0  0  0  0  0  0  0  0  0  0  0
  -13.2233  -12.6835   -5.2059 C   0  0  0  0  0  0  0  0  0  0  0  0
  -13.6203  -11.5419   -5.6544 O   0  0  0  0  0  0  0  0  0  0  0  0
  -12.0426  -12.7482   -4.4244 N   0  0  0  0  0  0  0  0  0  0  0  0
  -11.3606  -11.5116   -4.1828 C   0  0  0  0  0  0  0  0  0  0  0  0
  -12.0401  -10.6784   -3.1525 C   0  0  0  0  0  0  0  0  0  0  0  0
  -11.8514  -10.8603   -1.7972 C   0  0  0  0  0  0  0  0  0  0  0  0
  -12.5182  -10.0459   -0.8958 C   0  0  0  0  0  0  0  0  0  0  0  0
  -13.3743   -9.0486   -1.3369 C   0  0  0  0  0  0  0  0  0  0  0  0
  -13.5562   -8.8745   -2.6882 C   0  0  0  0  0  0  0  0  0  0  0  0
  -12.8897   -9.6890   -3.6038 C   0  0  0  0  0  0  0  0  0  0  0  0
  -13.1307   -9.4437   -4.9060 F   0  0  0  0  0  0  0  0  0  0  0  0
  -11.5988  -14.0012   -3.9270 C   0  0  0  0  0  0  0  0  0  0  0  0
  -10.4327  -13.9666   -3.1582 C   0  0  0  0  0  0  0  0  0  0  0  0
   -9.8614  -15.0819   -2.5892 C   0  0  0  0  0  0  0  0  0  0  0  0
  -10.5191  -16.2747   -2.8234 C   0  0  0  0  0  0  0  0  0  0  0  0
  -11.6566  -16.3561   -3.5651 C   0  0  0  0  0  0  0  0  0  0  0  0
  -12.1934  -15.2121   -4.1161 C   0  0  0  0  0  0  0  0  0  0  0  0
  -13.6641  -15.3336   -5.0745 S   0  0  0  0  0  6  0  0  0  0  0  0
  -14.7399  -15.9547   -4.2243 O   0  0  0  0  0  0  0  0  0  0  0  0
  -13.4181  -16.2633   -6.2202 O   0  0  0  0  0  0  0  0  0  0  0  0
  -16.2549  -12.8040   -5.8331 C   0  0  0  0  0  0  0  0  0  0  0  0
  -17.4062  -12.6105   -6.5394 C   0  0  0  0  0  0  0  0  0  0  0  0
  1  2  1  0
  2  3  1  0
  3  4  2  0
  4  5  1  0
  5  6  2  0
  6  7  1  0
  7  8  1  0
  8  9  2  0
  8 10  1  0
 10 11  1  0
 11 12  1  0
 12 13  2  0
 13 14  1  0
 14 15  2  0
 15 16  1  0
 16 17  2  0
 17 18  1  0
 10 19  1  0
 19 20  2  0
 20 21  1  0
 21 22  2  0
 22 23  1  0
 23 24  2  0
 24 25  1  0
 25 26  2  0
 25 27  2  0
  6 28  1  0
 28 29  2  0
 29  3  1  0
 25  7  1  0
 17 12  1  0
 24 19  1  0
M  END
$$$$
