
     RDKit          3D

 20 21  0  0  0  0  0  0  0  0999 V2000
  288.5834  134.6656   58.5811 O   0  0  0  0  0  0  0  0  0  0  0  0
  287.5691  133.9406   58.2761 C   0  0  0  0  0  0  0  0  0  0  0  0
  287.1240  133.0679   59.2949 N   0  0  0  0  0  0  0  0  0  0  0  0
  287.6517  133.2070   60.6191 C   0  0  0  0  0  0  0  0  0  0  0  0
  287.9864  132.1309   61.4130 C   0  0  0  0  0  0  0  0  0  0  0  0
  288.4966  132.3004   62.6945 C   0  0  0  0  0  0  0  0  0  0  0  0
  288.6846  133.5530   63.2144 C   0  0  0  0  0  0  0  0  0  0  0  0
  288.3504  134.6295   62.4218 C   0  0  0  0  0  0  0  0  0  0  0  0
  288.5827  136.2373   63.0663 Cl  0  0  0  0  0  0  0  0  0  0  0  0
  287.8372  134.4618   61.1327 C   0  0  0  0  0  0  0  0  0  0  0  0
  286.9907  134.0743   56.9654 C   0  0  0  0  0  0  0  0  0  0  0  0
  287.4995  133.3743   55.9040 C   0  0  0  0  0  0  0  0  0  0  0  0
  286.9359  133.5049   54.6290 C   0  0  0  0  0  0  0  0  0  0  0  0
  285.8649  134.3356   54.4183 C   0  0  0  0  0  0  0  0  0  0  0  0
  285.3540  135.0379   55.4810 C   0  0  0  0  0  0  0  0  0  0  0  0
  284.2004  135.9469   55.3090 C   0  0  0  0  0  0  0  0  0  0  0  0
  283.6778  135.7437   54.0488 F   0  0  0  0  0  0  0  0  0  0  0  0
  284.6020  137.2623   55.4648 F   0  0  0  0  0  0  0  0  0  0  0  0
  283.2384  135.5852   56.2308 F   0  0  0  0  0  0  0  0  0  0  0  0
  285.9270  134.8973   56.7488 C   0  0  0  0  0  0  0  0  0  0  0  0
  1  2  2  0
  2  3  1  0
  3  4  1  0
  4  5  2  0
  5  6  1  0
  6  7  2  0
  7  8  1  0
  8  9  1  0
  8 10  2  0
  2 11  1  0
 11 12  2  0
 12 13  1  0
 13 14  2  0
 14 15  1  0
 15 16  1  0
 16 17  1  0
 16 18  1  0
 16 19  1  0
 15 20  2  0
 10  4  1  0
 20 11  1  0
M  END
$$$$
