
     RDKit          3D

 13 13  0  0  0  0  0  0  0  0999 V2000
   -0.0476   -8.0323  -62.7681 C   0  0  0  0  0  0  0  0  0  0  0  0
   -0.8535   -7.2680  -61.8612 O   0  0  0  0  0  0  0  0  0  0  0  0
   -1.0132   -7.6574  -60.5442 C   0  0  0  0  0  0  0  0  0  0  0  0
   -0.2725   -8.5626  -60.0972 O   0  0  0  0  0  0  0  0  0  0  0  0
   -2.0238   -7.0427  -59.6547 C   0  0  0  0  0  0  0  0  0  0  0  0
   -1.6938   -7.3703  -57.9148 S   0  0  0  0  0  0  0  0  0  0  0  0
   -0.4865   -6.1601  -57.3497 C   0  0  0  0  0  0  0  0  0  0  0  0
    0.0228   -5.1931  -58.1898 C   0  0  0  0  0  0  0  0  0  0  0  0
    0.9453   -4.2625  -57.7719 C   0  0  0  0  0  0  0  0  0  0  0  0
    1.3687   -4.3081  -56.4634 C   0  0  0  0  0  0  0  0  0  0  0  0
    2.3005   -3.3608  -56.0584 O   0  0  0  0  0  0  0  0  0  0  0  0
    0.8942   -5.2526  -55.5775 C   0  0  0  0  0  0  0  0  0  0  0  0
   -0.0295   -6.1618  -56.0494 C   0  0  0  0  0  0  0  0  0  0  0  0
  1  2  1  0
  2  3  1  0
  3  4  2  0
  3  5  1  0
  5  6  1  0
  6  7  1  0
  7  8  2  0
  8  9  1  0
  9 10  2  0
 10 11  1  0
 10 12  1  0
 12 13  2  0
 13  7  1  0
M  END
$$$$
