
     RDKit          3D

 17 17  0  0  0  0  0  0  0  0999 V2000
  123.3850  146.5737  148.6530 F   0  0  0  0  0  0  0  0  0  0  0  0
  124.6433  145.7307  147.8726 C   0  0  0  0  0  0  0  0  0  0  0  0
  125.3874  145.2486  147.4166 C   0  0  0  0  0  0  0  0  0  0  0  0
  126.4200  144.5875  146.7595 C   0  0  0  0  0  0  0  0  0  0  0  0
  126.2167  143.3074  146.2006 C   0  0  0  0  0  0  0  0  0  0  0  0
  127.4036  142.7923  145.5778 C   0  0  0  0  0  0  0  0  0  0  0  0
  127.3314  141.5844  145.0392 C   0  0  0  0  0  0  0  0  0  0  0  0
  128.5116  141.1106  144.3677 C   0  0  0  0  0  0  0  0  0  0  0  0
  128.9535  140.2658  143.4877 O   0  0  0  0  0  0  0  0  0  0  0  0
  128.2938  138.9713  143.4340 C   0  0  0  0  0  0  0  0  0  0  0  0
  128.2402  138.9030  142.1132 N   0  0  0  0  0  0  0  0  0  0  0  0
  128.2590  137.8040  141.2811 C   0  0  0  0  0  0  0  0  0  0  0  0
  128.2509  136.4834  141.6759 C   0  0  0  0  0  0  0  0  0  0  0  0
  128.2189  135.4355  140.6312 C   0  0  0  0  0  0  0  0  0  0  0  0
  128.2144  135.7688  139.4662 C   0  0  0  0  0  0  0  0  0  0  0  0
  128.2080  137.0399  138.8797 C   0  0  0  0  0  0  0  0  0  0  0  0
  128.2185  138.0776  139.8445 C   0  0  0  0  0  0  0  0  0  0  0  0
  1  2  1  0
  2  3  3  0
  3  4  1  0
  4  5  2  3
  5  6  1  0
  6  7  2  3
  7  8  1  0
  8  9  1  0
  9 10  1  0
 10 11  2  3
 11 12  1  0
 12 13  2  0
 13 14  1  0
 14 15  2  0
 15 16  1  0
 16 17  2  0
 17 12  1  0
M  END
$$$$
