
     RDKit          3D

 17 18  0  0  0  0  0  0  0  0999 V2000
  148.6738  148.8325  146.1443 C   0  0  0  0  0  0  0  0  0  0  0  0
  148.1970  149.2972  147.2828 C   0  0  0  0  0  0  0  0  0  0  0  0
  147.1698  148.2272  148.4854 Br  0  0  0  0  0  0  0  0  0  0  0  0
  148.4437  150.7182  147.6983 C   0  0  0  0  0  0  0  0  0  0  0  0
  149.3046  151.2856  146.6798 N   0  0  0  0  0  0  0  0  0  0  0  0
  150.6829  151.3546  147.1093 C   0  0  0  0  0  0  0  0  0  0  0  0
  151.0390  152.7794  147.3711 C   0  0  0  0  0  0  0  0  0  0  0  0
  151.3402  153.5887  146.3040 C   0  0  0  0  0  0  0  0  0  0  0  0
  151.6724  154.8952  146.5188 C   0  0  0  0  0  0  0  0  0  0  0  0
  151.7083  155.4077  147.7913 C   0  0  0  0  0  0  0  0  0  0  0  0
  151.4015  154.5812  148.8712 C   0  0  0  0  0  0  0  0  0  0  0  0
  151.4318  155.0796  150.1626 O   0  0  0  0  0  0  0  0  0  0  0  0
  151.1366  154.3087  151.3075 C   0  0  0  0  0  0  0  0  0  0  0  0
  151.0664  153.2654  148.6607 C   0  0  0  0  0  0  0  0  0  0  0  0
  152.0688  156.7498  147.7733 O   0  0  0  0  0  0  0  0  0  0  0  0
  151.9680  157.1486  146.4004 C   0  0  0  0  0  0  0  0  0  0  0  0
  152.0225  155.9511  145.6641 O   0  0  0  0  0  0  0  0  0  0  0  0
  1  2  2  0
  2  3  1  0
  2  4  1  0
  4  5  1  0
  5  6  1  0
  6  7  1  0
  7  8  2  0
  8  9  1  0
  9 10  2  0
 10 11  1  0
 11 12  1  0
 12 13  1  0
 11 14  2  0
 10 15  1  0
 15 16  1  0
 16 17  1  0
 14  7  1  0
 17  9  1  0
M  END
$$$$
