
     RDKit          3D

 24 25  0  0  0  0  0  0  0  0999 V2000
    2.0392   31.8230   -0.5263 C   0  0  0  0  0  0  0  0  0  0  0  0
    3.3657   31.2516   -0.8712 C   0  0  0  0  0  0  0  0  0  0  0  0
    4.4402   32.1981   -1.2365 C   0  0  0  0  0  0  0  0  0  0  0  0
    5.7929   31.6727   -1.5055 C   0  0  0  0  0  0  0  0  0  0  0  0
    6.4582   30.8979   -0.4218 C   0  0  0  0  0  0  0  0  0  0  0  0
    7.8588   31.5104   -0.2032 C   0  0  0  0  0  0  0  0  0  0  0  0
    8.4712   30.8791    1.0307 C   0  0  0  0  0  0  0  0  0  0  0  0
    5.8608   30.8995   -2.7764 C   0  0  0  0  0  0  0  0  0  0  0  0
    6.2917   29.7206   -2.8114 O   0  0  0  0  0  0  0  0  0  0  0  0
    5.4502   31.4415   -3.9938 O   0  0  0  0  0  0  0  0  0  0  0  0
    4.4935   30.8374   -4.8000 C   0  0  0  0  0  0  0  0  0  0  0  0
    4.4883   29.4669   -4.9501 C   0  0  0  0  0  0  0  0  0  0  0  0
    3.5434   28.8245   -5.7512 C   0  0  0  0  0  0  0  0  0  0  0  0
    2.5766   29.5421   -6.4244 C   0  0  0  0  0  0  0  0  0  0  0  0
    1.6198   28.8754   -7.2374 N   0  0  0  0  0  0  0  0  0  0  0  0
    1.5349   27.4641   -7.3518 C   0  0  0  0  0  0  0  0  0  0  0  0
    2.1957   26.7606   -6.5509 O   0  0  0  0  0  0  0  0  0  0  0  0
    0.7188   26.7948   -8.3528 C   0  0  0  0  0  0  0  0  0  0  0  0
    0.5915   25.4377   -8.5543 C   0  0  0  0  0  0  0  0  0  0  0  0
   -0.2890   25.2579   -9.6147 C   0  0  0  0  0  0  0  0  0  0  0  0
   -0.6512   26.5312  -10.0019 C   0  0  0  0  0  0  0  0  0  0  0  0
   -0.0472   27.4181   -9.2469 O   0  0  0  0  0  0  0  0  0  0  0  0
    2.5924   30.9126   -6.2661 C   0  0  0  0  0  0  0  0  0  0  0  0
    3.5255   31.5502   -5.4746 C   0  0  0  0  0  0  0  0  0  0  0  0
  1  2  1  0
  2  3  1  0
  3  4  1  0
  4  5  1  0
  5  6  1  0
  6  7  1  0
  4  8  1  0
  8  9  2  0
  8 10  1  0
 10 11  1  0
 11 12  2  0
 12 13  1  0
 13 14  2  0
 14 15  1  0
 15 16  1  0
 16 17  2  0
 16 18  1  0
 18 19  2  0
 19 20  1  0
 20 21  2  0
 21 22  1  0
 14 23  1  0
 23 24  2  0
 24 11  1  0
 22 18  1  0
M  END
$$$$
