
     RDKit          3D

 24 25  0  0  0  0  0  0  0  0999 V2000
    0.4433  -10.1596  -63.7506 C   0  0  0  0  0  0  0  0  0  0  0  0
   -1.0184  -10.3471  -63.5689 C   0  0  0  0  0  0  0  0  0  0  0  0
   -1.7874   -9.2102  -63.0210 C   0  0  0  0  0  0  0  0  0  0  0  0
   -3.2451   -9.3551  -62.8415 C   0  0  0  0  0  0  0  0  0  0  0  0
   -3.7430  -10.6315  -62.2582 C   0  0  0  0  0  0  0  0  0  0  0  0
   -4.5987  -11.3336  -63.3349 C   0  0  0  0  0  0  0  0  0  0  0  0
   -4.8881  -12.7469  -62.8713 C   0  0  0  0  0  0  0  0  0  0  0  0
   -3.8442   -8.2094  -62.1025 C   0  0  0  0  0  0  0  0  0  0  0  0
   -4.9873   -8.2792  -61.5876 O   0  0  0  0  0  0  0  0  0  0  0  0
   -3.1696   -6.9996  -61.9426 O   0  0  0  0  0  0  0  0  0  0  0  0
   -2.4841   -6.6703  -60.7798 C   0  0  0  0  0  0  0  0  0  0  0  0
   -2.6665   -7.4225  -59.6389 C   0  0  0  0  0  0  0  0  0  0  0  0
   -1.9957   -7.1225  -58.4526 C   0  0  0  0  0  0  0  0  0  0  0  0
   -1.1223   -6.0573  -58.3797 C   0  0  0  0  0  0  0  0  0  0  0  0
   -0.4453   -5.7624  -57.1650 N   0  0  0  0  0  0  0  0  0  0  0  0
    0.6206   -4.8316  -57.0669 C   0  0  0  0  0  0  0  0  0  0  0  0
    1.0105   -4.2599  -58.1128 O   0  0  0  0  0  0  0  0  0  0  0  0
    1.2820   -4.5092  -55.8121 C   0  0  0  0  0  0  0  0  0  0  0  0
    2.1541   -3.4699  -55.5715 C   0  0  0  0  0  0  0  0  0  0  0  0
    2.5349   -3.5500  -54.2372 C   0  0  0  0  0  0  0  0  0  0  0  0
    1.8647   -4.6466  -53.7367 C   0  0  0  0  0  0  0  0  0  0  0  0
    1.1348   -5.1945  -54.6792 O   0  0  0  0  0  0  0  0  0  0  0  0
   -0.9485   -5.3124  -59.5280 C   0  0  0  0  0  0  0  0  0  0  0  0
   -1.6104   -5.6068  -60.7022 C   0  0  0  0  0  0  0  0  0  0  0  0
  1  2  1  0
  2  3  1  0
  3  4  1  0
  4  5  1  0
  5  6  1  0
  6  7  1  0
  4  8  1  0
  8  9  2  0
  8 10  1  0
 10 11  1  0
 11 12  2  0
 12 13  1  0
 13 14  2  0
 14 15  1  0
 15 16  1  0
 16 17  2  0
 16 18  1  0
 18 19  2  0
 19 20  1  0
 20 21  2  0
 21 22  1  0
 14 23  1  0
 23 24  2  0
 24 11  1  0
 22 18  1  0
M  END
$$$$
