
     RDKit          3D

 23 24  0  0  0  0  0  0  0  0999 V2000
   -9.9893  -11.0246   -1.6256 C   0  0  0  0  0  0  0  0  0  0  0  0
   -9.8035  -11.5803   -2.9802 C   0  0  0  0  0  0  0  0  0  0  0  0
   -9.0726  -10.7491   -3.9768 C   0  0  0  0  0  0  0  0  0  0  0  0
  -10.2350  -12.7487   -3.3148 C   0  0  0  0  0  0  0  0  0  0  0  0
  -11.4286  -13.3798   -2.7305 C   0  0  1  0  0  0  0  0  0  0  0  0
  -12.1954  -14.3409   -3.6524 C   0  0  1  0  0  0  0  0  0  0  0  0
  -11.6253  -14.7922   -4.9447 C   0  0  0  0  0  0  0  0  0  0  0  0
  -10.3830  -14.9665   -5.0746 O   0  0  0  0  0  0  0  0  0  0  0  0
  -12.4057  -15.0296   -6.0272 O   0  0  0  0  0  0  0  0  0  0  0  0
  -12.0651  -15.4338   -7.3057 C   0  0  0  0  0  0  0  0  0  0  0  0
  -13.1360  -15.6432   -8.2695 C   0  0  0  0  0  0  0  0  0  0  0  0
  -14.2207  -16.4769   -8.0271 C   0  0  0  0  0  0  0  0  0  0  0  0
  -15.2453  -16.6649   -8.9488 C   0  0  0  0  0  0  0  0  0  0  0  0
  -15.1874  -15.9982  -10.1548 C   0  0  0  0  0  0  0  0  0  0  0  0
  -16.2829  -16.2010  -11.1373 C   0  0  0  0  0  0  0  0  0  0  0  0
  -14.1299  -15.1700  -10.4187 C   0  0  0  0  0  0  0  0  0  0  0  0
  -14.0796  -14.4966  -11.6468 N   0  0  0  0  0  4  0  0  0  0  0  0
  -13.1729  -13.6720  -11.8545 O   0  0  0  0  0  0  0  0  0  0  0  0
  -15.0006  -14.7242  -12.6182 O   0  0  0  0  0  1  0  0  0  0  0  0
  -13.1192  -14.9975   -9.4846 C   0  0  0  0  0  0  0  0  0  0  0  0
  -11.4881  -14.8231   -2.4154 C   0  0  0  0  0  0  0  0  0  0  0  0
  -12.3162  -15.1893   -1.1983 C   0  0  0  0  0  0  0  0  0  0  0  0
  -10.3141  -15.7227   -2.6614 C   0  0  0  0  0  0  0  0  0  0  0  0
  1  2  1  0
  2  3  1  0
  2  4  2  3
  5  4  1  6
  5  6  1  0
  6  7  1  6
  7  8  2  0
  7  9  1  0
  9 10  1  0
 10 11  1  0
 11 12  2  0
 12 13  1  0
 13 14  2  0
 14 15  1  0
 14 16  1  0
 16 17  1  0
 17 18  2  0
 17 19  1  0
 16 20  2  0
  6 21  1  0
 21 22  1  0
 21 23  1  0
 21  5  1  0
 20 11  1  0
M  CHG  2  17   1  19  -1
M  END
$$$$
