
     RDKit          3D

 24 26  0  0  0  0  0  0  0  0999 V2000
    0.8017    6.7198  -15.4839 C   0  0  0  0  0  0  0  0  0  0  0  0
    2.0941    6.1674  -15.6664 O   0  0  0  0  0  0  0  0  0  0  0  0
    2.7469    6.2956  -16.8865 C   0  0  0  0  0  0  0  0  0  0  0  0
    2.2476    6.8665  -18.0202 C   0  0  0  0  0  0  0  0  0  0  0  0
    2.9895    6.9385  -19.1791 C   0  0  0  0  0  0  0  0  0  0  0  0
    4.2737    6.4419  -19.2656 C   0  0  0  0  0  0  0  0  0  0  0  0
    4.9779    6.5655  -20.5367 C   0  0  0  0  0  0  0  0  0  0  0  0
    6.2067    5.9838  -20.7670 C   0  0  0  0  0  0  0  0  0  0  0  0
    6.8276    6.1386  -22.0016 C   0  0  0  0  0  0  0  0  0  0  0  0
    7.9476    5.6311  -22.2684 O   0  0  0  0  0  0  0  0  0  0  0  0
    6.1813    6.8875  -22.9846 C   0  0  0  0  0  0  0  0  0  0  0  0
    6.7111    7.1012  -24.2414 C   0  0  0  0  0  0  0  0  0  0  0  0
    7.9326    6.5363  -24.5038 O   0  0  0  0  0  0  0  0  0  0  0  0
    6.0110    7.8579  -25.1703 C   0  0  0  0  0  0  0  0  0  0  0  0
    6.6491    7.9993  -26.3952 O   0  0  0  0  0  0  0  0  0  0  0  0
    7.2955    6.9319  -27.0526 C   0  0  0  0  0  0  0  0  0  0  0  0
    4.7718    8.4161  -24.8670 C   0  0  0  0  0  0  0  0  0  0  0  0
    4.2339    9.1270  -25.9034 O   0  0  0  0  0  0  0  0  0  0  0  0
    2.9811    9.7937  -25.8326 C   0  0  0  0  0  0  0  0  0  0  0  0
    4.2613    8.1890  -23.6031 C   0  0  0  0  0  0  0  0  0  0  0  0
    4.9497    7.4376  -22.6717 C   0  0  0  0  0  0  0  0  0  0  0  0
    4.4097    7.2594  -21.4892 O   0  0  0  0  0  0  0  0  0  0  0  0
    4.7790    5.8693  -18.1346 C   0  0  0  0  0  0  0  0  0  0  0  0
    4.0302    5.8008  -16.9775 C   0  0  0  0  0  0  0  0  0  0  0  0
  1  2  1  0
  2  3  1  0
  3  4  2  0
  4  5  1  0
  5  6  2  0
  6  7  1  0
  7  8  2  0
  8  9  1  0
  9 10  2  0
  9 11  1  0
 11 12  2  0
 12 13  1  0
 12 14  1  0
 14 15  1  0
 15 16  1  0
 14 17  2  0
 17 18  1  0
 18 19  1  0
 17 20  1  0
 20 21  2  0
 21 22  1  0
  6 23  1  0
 23 24  2  0
 24  3  1  0
 22  7  1  0
 21 11  1  0
M  END
$$$$
