
     RDKit          3D

 22 23  0  0  0  0  0  0  0  0999 V2000
    0.5295   25.5017   -8.2970 N   0  0  0  0  0  0  0  0  0  0  0  0
    1.6839   26.2675   -7.8445 C   0  0  0  0  0  0  0  0  0  0  0  0
    1.2087   27.3507   -6.9485 C   0  0  0  0  0  0  0  0  0  0  0  0
    1.7990   28.5322   -6.9227 C   0  0  0  0  0  0  0  0  0  0  0  0
    2.9278   28.7930   -5.9446 C   0  0  0  0  0  0  0  0  0  0  0  0
    4.1730   28.0743   -6.3980 C   0  0  0  0  0  0  0  0  0  0  0  0
    5.4232   28.8166   -6.2149 C   0  0  0  0  0  0  0  0  0  0  0  0
    5.7201   29.7389   -7.0475 N   0  0  0  0  0  0  0  0  0  0  0  0
    4.9847   30.1633   -8.1667 C   0  0  0  0  0  0  0  0  0  0  0  0
    4.8447   31.6831   -8.0757 C   0  0  0  0  0  0  0  0  0  0  0  0
    3.5464   31.9630   -7.4112 C   0  0  0  0  0  0  0  0  0  0  0  0
    3.5705   32.8151   -6.4058 C   0  0  0  0  0  0  0  0  0  0  0  0
    3.3017   32.4090   -5.1911 C   0  0  0  0  0  0  0  0  0  0  0  0
    3.0121   33.6422   -3.9841 Cl  0  0  0  0  0  0  0  0  0  0  0  0
    3.2482   30.9677   -4.8651 C   0  0  0  0  0  0  0  0  0  0  0  0
    3.0482   30.1812   -5.8067 N   0  0  0  0  0  0  0  0  0  0  0  0
    3.4382   30.5976   -3.4486 C   0  0  0  0  0  0  0  0  0  0  0  0
    2.1586   29.5341   -2.8230 Cl  0  0  0  0  0  0  0  0  0  0  0  0
    4.8129   29.9949   -3.2273 C   0  0  0  0  0  0  0  0  0  0  0  0
    4.7339   28.6461   -3.3780 O   0  0  0  0  0  0  0  0  0  0  0  0
    5.8058   27.9971   -3.8935 C   0  0  0  0  0  0  0  0  0  0  0  0
    6.4042   28.5915   -5.1299 C   0  0  0  0  0  0  0  0  0  0  0  0
  1  2  1  0
  2  3  1  0
  3  4  2  3
  4  5  1  0
  5  6  1  0
  6  7  1  0
  7  8  2  0
  8  9  1  0
  9 10  1  0
 10 11  1  0
 11 12  2  0
 12 13  2  0
 13 14  1  0
 13 15  1  0
 15 16  2  0
 15 17  1  0
 17 18  1  0
 17 19  1  0
 19 20  1  0
 20 21  1  0
 21 22  1  0
 16  5  1  0
 22  7  1  0
M  END
$$$$
