
     RDKit          3D

 11 11  0  0  0  0  0  0  0  0999 V2000
    8.4257    9.1480    3.4449 C   0  0  0  0  0  0  0  0  0  0  0  0
    8.5441    7.8800    3.7201 C   0  0  0  0  0  0  0  0  0  0  0  0
    9.0062    6.8577    2.8149 C   0  0  0  0  0  0  0  0  0  0  0  0
   10.1203    6.8499    2.1158 C   0  0  0  0  0  0  0  0  0  0  0  0
   11.1438    7.8769    2.1008 C   0  0  0  0  0  0  0  0  0  0  0  0
   11.8944    8.2711    3.1195 C   0  0  0  0  0  0  0  0  0  0  0  0
   11.8400    7.7685    4.4027 N   0  0  0  0  0  0  0  0  0  0  0  0
   11.1725    8.0108    5.4386 C   0  0  0  0  0  0  0  0  0  0  0  0
   10.1635    8.9754    5.6360 N   0  0  0  0  0  0  0  0  0  0  0  0
   10.0493   10.1901    4.8402 C   0  0  0  0  0  0  0  0  0  0  0  0
    9.4029    9.9128    3.5644 N   0  0  0  0  0  3  0  0  0  0  0  0
  1  2  2  0
  2  3  1  0
  3  4  2  0
  4  5  1  0
  5  6  2  0
  6  7  1  0
  7  8  2  0
  8  9  1  0
  9 10  1  0
 10 11  1  0
 11  1  2  0
M  CHG  1  11   1
M  RAD  1  11   2
M  END
$$$$
