
     RDKit          3D

 39 41  0  0  0  0  0  0  0  0999 V2000
    1.4196   30.7018   -7.6802 N   0  0  0  0  0  0  0  0  0  0  0  0
    1.6599   29.3022   -7.5320 C   0  0  0  0  0  0  0  0  0  0  0  0
    1.1088   28.4602   -8.4811 C   0  0  0  0  0  0  0  0  0  0  0  0
    1.3554   27.1204   -8.4541 C   0  0  0  0  0  0  0  0  0  0  0  0
    2.1708   26.6684   -7.4518 C   0  0  0  0  0  0  0  0  0  0  0  0
    2.7704   27.4466   -6.4549 C   0  0  0  0  0  0  0  0  0  0  0  0
    2.4785   28.8419   -6.5143 C   0  0  0  0  0  0  0  0  0  0  0  0
    2.8728   29.8418   -5.5383 C   0  0  0  0  0  0  0  0  0  0  0  0
    4.0354   29.9573   -4.9531 C   0  0  0  0  0  0  0  0  0  0  0  0
    4.3580   29.8796   -3.8048 N   0  0  0  0  0  0  0  0  0  0  0  0
    5.1366   30.7874   -3.0731 C   0  0  0  0  0  0  0  0  0  0  0  0
    6.5420   30.9218   -3.3888 N   0  0  0  0  0  0  0  0  0  0  0  0
    7.4327   30.1627   -4.1544 C   0  0  0  0  0  0  0  0  0  0  0  0
    8.4502   29.5538   -3.4938 C   0  0  0  0  0  0  0  0  0  0  0  0
    8.7639   29.5281   -2.1475 C   0  0  0  0  0  0  0  0  0  0  0  0
    9.0555   29.5946   -0.9236 C   0  0  0  0  0  0  0  0  0  0  0  0
    8.9209   30.9695    0.1535 Cl  0  0  0  0  0  0  0  0  0  0  0  0
    7.4935   29.9469   -5.6227 C   0  0  0  0  0  0  0  0  0  0  0  0
    7.4500   28.4987   -5.9975 C   0  0  0  0  0  0  0  0  0  0  0  0
    6.3550   27.9296   -6.7586 C   0  0  0  0  0  0  0  0  0  0  0  0
    5.8751   26.6224   -6.2538 N   0  0  0  0  0  0  0  0  0  0  0  0
    4.9298   26.7366   -5.1808 C   0  0  0  0  0  0  0  0  0  0  0  0
    3.5586   26.7545   -5.5535 N   0  0  0  0  0  0  0  0  0  0  0  0
    6.7894   30.8361   -6.5351 C   0  0  0  0  0  0  0  0  0  0  0  0
    6.3136   32.1694   -6.1285 C   0  0  0  0  0  0  0  0  0  0  0  0
    5.0401   32.3449   -6.6794 O   0  0  0  0  0  0  0  0  0  0  0  0
    4.1797   33.1408   -5.9693 C   0  0  0  0  0  0  0  0  0  0  0  0
    3.3542   32.5847   -5.0476 O   0  0  0  0  0  0  0  0  0  0  0  0
    2.1032   32.1250   -4.9068 C   0  0  0  0  0  0  0  0  0  0  0  0
    1.8557   30.8216   -5.1439 C   0  0  0  0  0  0  0  0  0  0  0  0
    0.4826   30.3357   -5.0584 C   0  0  0  0  0  0  0  0  0  0  0  0
   -0.5816   31.2409   -5.4942 C   0  0  0  0  0  0  0  0  0  0  0  0
   -1.2090   31.9341   -4.5799 N   0  0  0  0  0  0  0  0  0  0  0  0
   -0.8238   31.7675   -3.1836 C   0  0  0  0  0  0  0  0  0  0  0  0
   -1.4426   32.3972   -2.3039 C   0  0  0  0  0  0  0  0  0  0  0  0
   -2.0158   33.0220   -1.2714 C   0  0  0  0  0  0  0  0  0  0  0  0
   -2.5111   33.5836   -0.3531 C   0  0  0  0  0  0  0  0  0  0  0  0
   -3.0714   34.2283    0.6856 O   0  0  0  0  0  0  0  0  0  0  0  0
   -2.0905   34.6480    2.0626 Cl  0  0  0  0  0  0  0  0  0  0  0  0
  1  2  1  0
  2  3  2  0
  3  4  1  0
  4  5  2  0
  5  6  1  0
  6  7  2  0
  7  8  1  0
  8  9  2  0
  9 10  2  0
 10 11  1  0
 11 12  1  0
 12 13  1  0
 13 14  2  3
 14 15  1  0
 15 16  2  3
 16 17  1  0
 13 18  1  0
 18 19  1  0
 19 20  1  0
 20 21  1  0
 21 22  1  0
 22 23  1  0
 18 24  1  0
 24 25  1  0
 25 26  1  0
 26 27  1  0
 27 28  1  0
 28 29  1  0
 29 30  2  0
 30 31  1  0
 31 32  1  0
 32 33  2  3
 33 34  1  0
 34 35  2  3
 35 36  1  0
 36 37  3  0
 37 38  1  0
 38 39  1  0
  7  2  1  0
 30  8  1  0
 23  6  1  0
M  END
$$$$
