
     RDKit          3D

 22 23  0  0  0  0  0  0  0  0999 V2000
  148.9560  158.1970  158.7552 C   0  0  0  0  0  0  0  0  0  0  0  0
  149.7597  158.5888  157.6621 O   0  0  0  0  0  0  0  0  0  0  0  0
  150.0258  157.6656  156.6677 C   0  0  0  0  0  0  0  0  0  0  0  0
  149.5609  156.3704  156.7467 C   0  0  0  0  0  0  0  0  0  0  0  0
  149.8495  155.4834  155.7334 C   0  0  0  0  0  0  0  0  0  0  0  0
  149.2178  153.6676  155.8088 Br  0  0  0  0  0  0  0  0  0  0  0  0
  150.5954  155.8504  154.6303 C   0  0  0  0  0  0  0  0  0  0  0  0
  150.9088  154.8949  153.5330 C   0  0  0  0  0  0  0  0  0  0  0  0
  151.0598  155.5390  152.2645 N   0  0  0  0  0  0  0  0  0  0  0  0
  152.0351  154.7978  151.4906 C   0  0  0  0  0  0  0  0  0  0  0  0
  151.3634  154.0257  150.4022 C   0  0  0  0  0  0  0  0  0  0  0  0
  153.1011  155.7513  150.9946 C   0  0  0  0  0  0  0  0  0  0  0  0
  153.6999  156.4305  152.1292 N   0  0  0  0  0  0  0  0  0  0  0  0
  154.1583  155.0764  150.2294 C   0  0  0  0  0  0  0  0  0  0  0  0
  155.3562  154.7634  150.8499 C   0  0  0  0  0  0  0  0  0  0  0  0
  156.3676  154.1320  150.1511 C   0  0  0  0  0  0  0  0  0  0  0  0
  156.1864  153.8112  148.8319 C   0  0  0  0  0  0  0  0  0  0  0  0
  154.9907  154.1158  148.1873 C   0  0  0  0  0  0  0  0  0  0  0  0
  153.9858  154.7461  148.8912 C   0  0  0  0  0  0  0  0  0  0  0  0
  151.0380  157.1581  154.5975 C   0  0  0  0  0  0  0  0  0  0  0  0
  150.7738  158.0642  155.5794 C   0  0  0  0  0  0  0  0  0  0  0  0
  151.2271  159.3906  155.5387 O   0  0  0  0  0  0  0  0  0  0  0  0
  1  2  1  0
  2  3  1  0
  3  4  2  0
  4  5  1  0
  5  6  1  0
  5  7  2  0
  7  8  1  0
  8  9  1  0
  9 10  1  0
 10 11  1  0
 10 12  1  0
 12 13  1  0
 12 14  1  0
 14 15  2  0
 15 16  1  0
 16 17  2  0
 17 18  1  0
 18 19  2  0
  7 20  1  0
 20 21  2  0
 21 22  1  0
 21  3  1  0
 19 14  1  0
M  END
$$$$
