
     RDKit          3D

 21 22  0  0  0  0  0  0  0  0999 V2000
  127.0135  137.3494  149.6509 C   0  0  0  0  0  0  0  0  0  0  0  0
  127.5718  137.4880  148.4125 C   0  0  0  0  0  0  0  0  0  0  0  0
  127.5641  138.7411  147.8109 C   0  0  0  0  0  0  0  0  0  0  0  0
  127.5572  139.8485  147.2791 C   0  0  0  0  0  0  0  0  0  0  0  0
  127.4569  141.0492  148.1317 N   0  0  0  0  0  0  0  0  0  0  0  0
  127.7168  142.1835  147.6109 C   0  0  0  0  0  0  0  0  0  0  0  0
  127.6333  143.4157  148.4146 C   0  0  0  0  0  0  0  0  0  0  0  0
  128.4801  143.6553  149.4721 C   0  0  0  0  0  0  0  0  0  0  0  0
  128.3930  144.7923  150.2448 C   0  0  0  0  0  0  0  0  0  0  0  0
  127.4324  145.7440  149.9751 C   0  0  0  0  0  0  0  0  0  0  0  0
  127.3119  147.1978  150.9486 Cl  0  0  0  0  0  0  0  0  0  0  0  0
  126.6021  145.4881  148.9215 C   0  0  0  0  0  0  0  0  0  0  0  0
  125.3769  146.7210  148.5837 Cl  0  0  0  0  0  0  0  0  0  0  0  0
  126.6812  144.3463  148.1397 C   0  0  0  0  0  0  0  0  0  0  0  0
  128.0743  142.2670  146.2459 N   0  0  0  0  0  0  0  0  0  0  0  0
  127.9147  141.2899  145.3603 O   0  0  0  0  0  0  0  0  0  0  0  0
  127.6954  140.0584  145.8118 C   0  0  0  0  0  0  0  0  0  0  0  0
  126.3141  139.1911  145.0115 S   0  0  0  0  0  2  0  0  0  0  0  0
  126.8043  138.5977  143.4200 N   0  0  0  0  0  0  0  0  0  0  0  0
  127.9498  137.6894  143.5633 C   0  0  0  0  0  0  0  0  0  0  0  0
  128.3346  137.2629  142.1455 C   0  0  0  0  0  0  0  0  0  0  0  0
  1  2  2  0
  2  3  1  0
  3  4  2  3
  4  5  1  0
  5  6  2  0
  6  7  1  0
  7  8  2  0
  8  9  1  0
  9 10  2  0
 10 11  1  0
 10 12  1  0
 12 13  1  0
 12 14  2  0
  6 15  1  0
 15 16  1  0
 16 17  1  0
 17 18  1  0
 18 19  1  0
 19 20  1  0
 20 21  1  0
 17  4  1  0
 14  7  1  0
M  CHG  1  18  -1
M  RAD  1  18   2
M  END
$$$$
