
     RDKit          3D

 19 20  0  0  0  0  0  0  0  0999 V2000
   31.6803   47.2933    5.4833 C   0  0  0  0  0  0  0  0  0  0  0  0
   30.5417   46.6832    5.2515 C   0  0  0  0  0  0  0  0  0  0  0  0
   29.2486   47.2618    5.7135 C   0  0  0  0  0  0  0  0  0  0  0  0
   29.5466   48.2430    6.7064 N   0  0  0  0  0  0  0  0  0  0  0  0
   29.0235   49.4416    6.5281 O   0  0  0  0  0  0  0  0  0  0  0  0
   29.7227   50.4340    7.2024 C   0  0  0  0  0  0  0  0  0  0  0  0
   29.3898   50.3871    8.6842 C   0  0  0  0  0  0  0  0  0  0  0  0
   30.4122   49.7163    9.3947 N   0  0  0  0  0  0  0  0  0  0  0  0
   30.6685   48.3742    9.1051 C   0  0  0  0  0  0  0  0  0  0  0  0
   31.3593   47.8262   10.5368 C   0  0  0  0  0  0  0  0  0  0  0  0
   30.5950   47.9780   11.6711 C   0  0  0  0  0  0  0  0  0  0  0  0
   31.0925   49.4752   12.5712 Cl  0  0  0  0  0  0  0  0  0  0  0  0
   32.4430   47.4362   10.1065 N   0  0  0  0  0  0  0  0  0  0  0  0
   33.7780   47.4223    8.9136 C   0  0  0  0  0  0  0  0  0  0  0  0
   34.4561   46.5675    9.5940 C   0  0  0  0  0  0  0  0  0  0  0  0
   33.2842   45.8775   10.2960 C   0  0  0  0  0  0  0  0  0  0  0  0
   32.2125   46.6585    9.8349 C   0  0  0  0  0  0  0  0  0  0  0  0
   32.0153   47.9077    8.8438 C   0  0  0  0  0  0  0  0  0  0  0  0
   33.1173   48.2542    8.2515 C   0  0  0  0  0  0  0  0  0  0  0  0
  1  2  2  0
  2  3  1  0
  3  4  1  0
  4  5  1  0
  5  6  1  0
  6  7  1  0
  7  8  1  0
  8  9  1  0
  9 10  1  0
 10 11  1  0
 11 12  1  0
 10 13  2  0
 13 14  1  0
 14 15  1  0
 15 16  2  0
 16 17  1  0
 17 18  2  0
 18 19  1  0
 18  9  1  0
 19 14  2  0
M  END
$$$$
