
     RDKit          3D

 16 17  0  0  0  0  0  0  0  0999 V2000
   19.2107   31.0894   32.2044 C   0  0  0  0  0  0  0  0  0  0  0  0
   18.3749   32.2154   32.1802 O   0  0  0  0  0  0  0  0  0  0  0  0
   17.3713   32.3026   31.2066 C   0  0  0  0  0  0  0  0  0  0  0  0
   16.1252   31.7397   31.3959 C   0  0  0  0  0  0  0  0  0  0  0  0
   15.1479   31.8330   30.4303 C   0  0  0  0  0  0  0  0  0  0  0  0
   15.3729   32.4899   29.2393 C   0  0  0  0  0  0  0  0  0  0  0  0
   14.4404   32.5829   28.3100 O   0  0  0  0  0  0  0  0  0  0  0  0
   14.6106   33.1934   27.1724 C   0  0  0  0  0  0  0  0  0  0  0  0
   13.5181   33.2561   26.1799 C   0  0  0  0  0  0  0  0  0  0  0  0
   12.3322   33.9506   26.4412 N   0  0  0  0  0  0  0  0  0  0  0  0
   13.6713   32.6671   25.0796 O   0  0  0  0  0  0  0  0  0  0  0  0
   15.8286   33.7828   26.9058 C   0  0  0  0  0  0  0  0  0  0  0  0
   16.8400   33.7192   27.8364 C   0  0  0  0  0  0  0  0  0  0  0  0
   17.9606   34.2478   27.6196 O   0  0  0  0  0  0  0  0  0  0  0  0
   16.6233   33.0639   29.0305 C   0  0  0  0  0  0  0  0  0  0  0  0
   17.5801   32.9560   30.0102 C   0  0  0  0  0  0  0  0  0  0  0  0
  1  2  1  0
  2  3  1  0
  3  4  2  0
  4  5  1  0
  5  6  2  0
  6  7  1  0
  7  8  1  0
  8  9  1  0
  9 10  1  0
  9 11  2  0
  8 12  2  0
 12 13  1  0
 13 14  2  0
 13 15  1  0
 15 16  2  0
 16  3  1  0
 15  6  1  0
M  END
$$$$
