
     RDKit          3D

 22 23  0  0  0  0  0  0  0  0999 V2000
  117.6599  141.6015  129.7571 C   0  0  0  0  0  0  0  0  0  0  0  0
  119.0632  141.3801  129.9580 O   0  0  0  0  0  0  0  0  0  0  0  0
  119.8686  142.5109  130.1946 C   0  0  0  0  0  0  0  0  0  0  0  0
  119.3540  143.7772  130.1387 C   0  0  0  0  0  0  0  0  0  0  0  0
  120.1143  144.9470  130.3670 C   0  0  0  0  0  0  0  0  0  0  0  0
  119.4712  146.2271  130.3424 C   0  0  0  0  0  0  0  0  0  0  0  0
  119.5926  147.3777  130.8632 C   0  0  0  0  0  0  0  0  0  0  0  0
  118.8666  148.5869  130.7750 C   0  0  0  0  0  0  0  0  0  0  0  0
  117.8768  148.7878  130.0527 O   0  0  0  0  0  0  0  0  0  0  0  0
  119.2610  149.7674  131.5866 C   0  0  0  0  0  0  0  0  0  0  0  0
  118.3129  150.7219  131.9639 C   0  0  0  0  0  0  0  0  0  0  0  0
  118.6480  151.8184  132.7090 C   0  0  0  0  0  0  0  0  0  0  0  0
  119.9393  152.0366  133.1253 C   0  0  0  0  0  0  0  0  0  0  0  0
  120.3238  153.4663  134.0854 Cl  0  0  0  0  0  0  0  0  0  0  0  0
  120.8892  151.1231  132.7736 C   0  0  0  0  0  0  0  0  0  0  0  0
  120.5396  150.0013  132.0097 C   0  0  0  0  0  0  0  0  0  0  0  0
  121.4303  144.7125  130.6554 C   0  0  0  0  0  0  0  0  0  0  0  0
  121.9905  143.4242  130.7196 C   0  0  0  0  0  0  0  0  0  0  0  0
  123.6888  143.2418  131.0952 Cl  0  0  0  0  0  0  0  0  0  0  0  0
  121.1963  142.3347  130.4867 C   0  0  0  0  0  0  0  0  0  0  0  0
  121.7290  141.0660  130.5457 O   0  0  0  0  0  0  0  0  0  0  0  0
  121.6437  140.2229  131.6720 C   0  0  0  0  0  0  0  0  0  0  0  0
  1  2  1  0
  2  3  1  0
  3  4  2  0
  4  5  1  0
  5  6  1  0
  6  7  2  3
  7  8  1  0
  8  9  2  0
  8 10  1  0
 10 11  2  0
 11 12  1  0
 12 13  2  0
 13 14  1  0
 13 15  1  0
 15 16  2  0
  5 17  2  0
 17 18  1  0
 18 19  1  0
 18 20  2  0
 20 21  1  0
 21 22  1  0
 20  3  1  0
 16 10  1  0
M  END
$$$$
