
     RDKit          3D

 22 23  0  0  0  0  0  0  0  0999 V2000
  128.1963  138.0650  143.4900 C   0  0  0  0  0  0  0  0  0  0  0  0
  127.6302  137.2324  144.5122 O   0  0  0  0  0  0  0  0  0  0  0  0
  127.2537  137.8548  145.7180 C   0  0  0  0  0  0  0  0  0  0  0  0
  127.5352  139.1717  145.9589 C   0  0  0  0  0  0  0  0  0  0  0  0
  127.1819  139.8477  147.1492 C   0  0  0  0  0  0  0  0  0  0  0  0
  127.4703  141.2446  147.2841 C   0  0  0  0  0  0  0  0  0  0  0  0
  127.2595  142.1994  148.0928 C   0  0  0  0  0  0  0  0  0  0  0  0
  127.4475  143.5991  148.0440 C   0  0  0  0  0  0  0  0  0  0  0  0
  127.7010  144.2619  147.0251 O   0  0  0  0  0  0  0  0  0  0  0  0
  127.3491  144.4195  149.2790 C   0  0  0  0  0  0  0  0  0  0  0  0
  127.5488  143.8425  150.5357 C   0  0  0  0  0  0  0  0  0  0  0  0
  127.4628  144.5731  151.6884 C   0  0  0  0  0  0  0  0  0  0  0  0
  127.1745  145.9165  151.6676 C   0  0  0  0  0  0  0  0  0  0  0  0
  127.0740  146.8178  153.1812 Cl  0  0  0  0  0  0  0  0  0  0  0  0
  126.9739  146.5103  150.4561 C   0  0  0  0  0  0  0  0  0  0  0  0
  127.0634  145.7562  149.2782 C   0  0  0  0  0  0  0  0  0  0  0  0
  126.5223  139.0701  148.0604 C   0  0  0  0  0  0  0  0  0  0  0  0
  126.2185  137.7140  147.8442 C   0  0  0  0  0  0  0  0  0  0  0  0
  125.3720  136.8137  149.0817 Cl  0  0  0  0  0  0  0  0  0  0  0  0
  126.5911  137.1221  146.6683 C   0  0  0  0  0  0  0  0  0  0  0  0
  126.3014  135.7950  146.4406 O   0  0  0  0  0  0  0  0  0  0  0  0
  125.8606  135.2815  145.2042 C   0  0  0  0  0  0  0  0  0  0  0  0
  1  2  1  0
  2  3  1  0
  3  4  2  0
  4  5  1  0
  5  6  1  0
  6  7  2  3
  7  8  1  0
  8  9  2  0
  8 10  1  0
 10 11  2  0
 11 12  1  0
 12 13  2  0
 13 14  1  0
 13 15  1  0
 15 16  2  0
  5 17  2  0
 17 18  1  0
 18 19  1  0
 18 20  2  0
 20 21  1  0
 21 22  1  0
 20  3  1  0
 16 10  1  0
M  END
$$$$
