
     RDKit          3D

 22 23  0  0  0  0  0  0  0  0999 V2000
  126.6857  135.4951  145.8629 C   0  0  0  0  0  0  0  0  0  0  0  0
  126.9807  136.1792  144.6368 O   0  0  0  0  0  0  0  0  0  0  0  0
  127.3130  137.5450  144.7224 C   0  0  0  0  0  0  0  0  0  0  0  0
  127.2817  138.2131  145.9158 C   0  0  0  0  0  0  0  0  0  0  0  0
  127.6047  139.5817  146.0609 C   0  0  0  0  0  0  0  0  0  0  0  0
  127.5976  140.1780  147.3636 C   0  0  0  0  0  0  0  0  0  0  0  0
  127.7004  141.3228  147.9010 C   0  0  0  0  0  0  0  0  0  0  0  0
  127.7435  141.7918  149.2333 C   0  0  0  0  0  0  0  0  0  0  0  0
  127.8992  141.0891  150.2451 O   0  0  0  0  0  0  0  0  0  0  0  0
  127.5970  143.2402  149.5311 C   0  0  0  0  0  0  0  0  0  0  0  0
  126.9441  144.0897  148.6342 C   0  0  0  0  0  0  0  0  0  0  0  0
  126.7963  145.4263  148.8818 C   0  0  0  0  0  0  0  0  0  0  0  0
  127.2848  146.0026  150.0297 C   0  0  0  0  0  0  0  0  0  0  0  0
  127.0699  147.7321  150.3054 Cl  0  0  0  0  0  0  0  0  0  0  0  0
  127.9277  145.2004  150.9261 C   0  0  0  0  0  0  0  0  0  0  0  0
  128.0760  143.8311  150.6668 C   0  0  0  0  0  0  0  0  0  0  0  0
  127.9598  140.2003  144.8942 C   0  0  0  0  0  0  0  0  0  0  0  0
  128.0012  139.5430  143.6516 C   0  0  0  0  0  0  0  0  0  0  0  0
  128.4680  140.4346  142.2213 Cl  0  0  0  0  0  0  0  0  0  0  0  0
  127.6750  138.2160  143.5832 C   0  0  0  0  0  0  0  0  0  0  0  0
  127.7104  137.5572  142.3742 O   0  0  0  0  0  0  0  0  0  0  0  0
  128.8302  136.8520  141.8891 C   0  0  0  0  0  0  0  0  0  0  0  0
  1  2  1  0
  2  3  1  0
  3  4  2  0
  4  5  1  0
  5  6  1  0
  6  7  2  3
  7  8  1  0
  8  9  2  0
  8 10  1  0
 10 11  2  0
 11 12  1  0
 12 13  2  0
 13 14  1  0
 13 15  1  0
 15 16  2  0
  5 17  2  0
 17 18  1  0
 18 19  1  0
 18 20  2  0
 20 21  1  0
 21 22  1  0
 20  3  1  0
 16 10  1  0
M  END
$$$$
