
     RDKit          3D

 18 19  0  0  0  0  0  0  0  0999 V2000
    1.8545   24.1457  -10.5610 C   0  0  0  0  0  0  0  0  0  0  0  0
    1.1541   24.5957   -9.3090 C   0  0  0  0  0  0  0  0  0  0  0  0
    1.5489   25.9835   -8.8694 C   0  0  0  0  0  0  0  0  0  0  0  0
    0.9742   26.3424   -7.5259 C   0  0  0  0  0  0  0  0  0  0  0  0
    1.1471   27.7802   -7.2019 C   0  0  0  0  0  0  0  0  0  0  0  0
    0.5580   28.7445   -7.9966 C   0  0  0  0  0  0  0  0  0  0  0  0
   -0.1904   28.2980   -9.0892 O   0  0  0  0  0  1  0  0  0  0  0  0
    0.6813   30.0596   -7.7550 N   0  0  0  0  0  0  0  0  0  0  0  0
    1.3964   30.5064   -6.7087 C   0  0  0  0  0  0  0  0  0  0  0  0
    1.5177   31.8519   -6.4688 C   0  0  0  0  0  0  0  0  0  0  0  0
    2.2598   32.2754   -5.3865 C   0  0  0  0  0  0  0  0  0  0  0  0
    2.8724   31.3663   -4.5555 C   0  0  0  0  0  0  0  0  0  0  0  0
    3.5943   31.8504   -3.4995 O   0  0  0  0  0  0  0  0  0  0  0  0
    4.4019   31.1240   -2.6231 C   0  0  0  0  0  0  0  0  0  0  0  0
    2.7493   30.0203   -4.7977 C   0  0  0  0  0  0  0  0  0  0  0  0
    2.0154   29.5834   -5.8686 C   0  0  0  0  0  0  0  0  0  0  0  0
    1.8866   28.2152   -6.1218 C   0  0  0  0  0  0  0  0  0  0  0  0
    2.4430   27.4103   -5.3657 O   0  0  0  0  0  0  0  0  0  0  0  0
  1  2  1  0
  2  3  1  0
  3  4  1  0
  4  5  1  0
  5  6  2  0
  6  7  1  0
  6  8  1  0
  8  9  1  0
  9 10  2  0
 10 11  1  0
 11 12  2  0
 12 13  1  0
 13 14  1  0
 12 15  1  0
 15 16  2  0
 16 17  1  0
 17 18  2  0
 17  5  1  0
 16  9  1  0
M  CHG  1   7  -1
M  END
$$$$
