
     RDKit          3D

 20 21  0  0  0  0  0  0  0  0999 V2000
   -4.3831   -7.6286  -57.1702 C   0  0  0  0  0  0  0  0  0  0  0  0
   -3.0408   -8.2534  -56.8580 C   0  0  0  0  0  0  0  0  0  0  0  0
   -2.0974   -7.2639  -56.3245 N   0  0  0  0  0  0  0  0  0  0  0  0
   -1.0148   -6.7908  -57.0925 C   0  0  0  0  0  0  0  0  0  0  0  0
   -0.8887   -7.2133  -58.3636 N   0  0  0  0  0  0  0  0  0  0  0  0
    0.1103   -6.8077  -59.1443 C   0  0  0  0  0  0  0  0  0  0  0  0
    0.2730   -7.2347  -60.4956 N   0  0  0  0  0  0  0  0  0  0  0  0
   -0.5513   -8.2751  -61.0886 C   0  0  0  0  0  0  0  0  0  0  0  0
   -1.5714   -7.6421  -61.9201 C   0  0  0  0  0  0  0  0  0  0  0  0
   -1.3887   -6.6243  -62.7005 C   0  0  0  0  0  0  0  0  0  0  0  0
   -0.9676   -6.9207  -64.4133 Cl  0  0  0  0  0  0  0  0  0  0  0  0
   -1.4959   -5.2139  -62.2981 C   0  0  0  0  0  0  0  0  0  0  0  0
    0.0406   -4.3527  -62.6984 Cl  0  0  0  0  0  0  0  0  0  0  0  0
    0.9901   -5.9539  -58.6035 N   0  0  0  0  0  0  0  0  0  0  0  0
    0.9453   -5.4818  -57.3551 C   0  0  0  0  0  0  0  0  0  0  0  0
    1.8759   -4.6032  -56.8442 C   0  0  0  0  0  0  0  0  0  0  0  0
    1.8207   -4.1223  -55.5564 C   0  0  0  0  0  0  0  0  0  0  0  0
    0.7820   -4.5553  -54.7721 C   0  0  0  0  0  0  0  0  0  0  0  0
   -0.1760   -5.4428  -55.2560 C   0  0  0  0  0  0  0  0  0  0  0  0
   -0.1119   -5.9184  -56.5469 C   0  0  0  0  0  0  0  0  0  0  0  0
  1  2  1  0
  2  3  1  0
  3  4  1  0
  4  5  2  0
  5  6  1  0
  6  7  1  0
  7  8  1  0
  8  9  1  0
  9 10  2  3
 10 11  1  0
 10 12  1  0
 12 13  1  0
  6 14  2  0
 14 15  1  0
 15 16  2  0
 16 17  1  0
 17 18  2  0
 18 19  1  0
 19 20  2  0
 20  4  1  0
 20 15  1  0
M  END
$$$$
