
     RDKit          3D

 19 19  0  0  0  0  0  0  0  0999 V2000
  127.0370  134.8305  139.2886 N   0  0  0  0  0  0  0  0  0  0  0  0
  127.1358  135.9288  140.1239 N   0  0  0  0  0  0  0  0  0  0  0  0
  128.3680  136.6638  140.3701 C   0  0  0  0  0  0  0  0  0  0  0  0
  129.0544  136.8282  139.2891 N   0  0  0  0  0  0  0  0  0  0  0  0
  130.3086  137.5060  139.2403 C   0  0  0  0  0  0  0  0  0  0  0  0
  130.2048  138.4367  138.0780 C   0  0  0  0  0  0  0  0  0  0  0  0
  130.0355  139.7520  138.3033 C   0  0  0  0  0  0  0  0  0  0  0  0
  129.9395  140.3817  139.5805 C   0  0  0  0  0  0  0  0  0  0  0  0
  128.8104  140.1988  140.4251 N   0  0  0  0  0  0  0  0  0  0  0  0
  128.5283  139.6422  141.6772 C   0  0  0  0  0  0  0  0  0  0  0  0
  127.9177  140.5189  142.5346 C   0  0  0  0  0  0  0  0  0  0  0  0
  127.8476  140.4081  143.9474 C   0  0  0  0  0  0  0  0  0  0  0  0
  127.2757  141.3418  144.6731 C   0  0  0  0  0  0  0  0  0  0  0  0
  127.1948  141.2843  146.4167 Cl  0  0  0  0  0  0  0  0  0  0  0  0
  128.7232  138.3158  142.2406 C   0  0  0  0  0  0  0  0  0  0  0  0
  128.6582  137.0876  141.7263 C   0  0  0  0  0  0  0  0  0  0  0  0
  128.7878  135.9026  142.6580 C   0  0  0  0  0  0  0  0  0  0  0  0
  128.2240  135.9899  143.8132 N   0  0  0  0  0  0  0  0  0  0  0  0
  126.6341  135.3565  144.0533 Cl  0  0  0  0  0  0  0  0  0  0  0  0
  1  2  1  0
  2  3  1  0
  3  4  2  0
  4  5  1  0
  5  6  1  0
  6  7  2  0
  7  8  1  0
  8  9  1  0
  9 10  1  0
 10 11  2  3
 11 12  1  0
 12 13  2  3
 13 14  1  0
 10 15  1  0
 15 16  2  0
 16 17  1  0
 17 18  2  3
 18 19  1  0
 16  3  1  0
M  END
$$$$
