
     RDKit          3D

 19 21  0  0  0  0  0  0  0  0999 V2000
  129.2053  138.0661  141.1272 O   0  0  0  0  0  0  0  0  0  0  0  0
  129.1864  138.1219  142.5183 C   0  0  0  0  0  0  0  0  0  0  0  0
  127.7511  137.9613  142.9619 C   0  0  0  0  0  0  0  0  0  0  0  0
  127.4624  138.6956  144.2161 C   0  0  0  0  0  0  0  0  0  0  0  0
  127.5201  140.1104  144.3733 N   0  0  0  0  0  0  0  0  0  0  0  0
  128.5073  140.8457  143.5978 C   0  0  0  0  0  0  0  0  0  0  0  0
  128.2529  142.3130  143.6743 C   0  0  0  0  0  0  0  0  0  0  0  0
  127.6705  142.8739  144.7252 C   0  0  0  0  0  0  0  0  0  0  0  0
  127.4128  144.6080  144.7239 Cl  0  0  0  0  0  0  0  0  0  0  0  0
  127.2696  141.9994  145.8542 C   0  0  0  0  0  0  0  0  0  0  0  0
  128.7350  141.6103  146.7745 Cl  0  0  0  0  0  0  0  0  0  0  0  0
  126.6124  140.7651  145.2825 C   0  0  0  0  0  0  0  0  0  0  0  0
  127.1541  137.8346  145.1246 N   0  0  0  0  0  0  0  0  0  0  0  0
  127.1934  136.5070  144.6325 C   0  0  0  0  0  0  0  0  0  0  0  0
  126.9448  135.2933  145.2287 C   0  0  0  0  0  0  0  0  0  0  0  0
  127.0394  134.0906  144.5655 C   0  0  0  0  0  0  0  0  0  0  0  0
  127.4050  134.1411  143.2339 C   0  0  0  0  0  0  0  0  0  0  0  0
  127.6571  135.3441  142.6217 C   0  0  0  0  0  0  0  0  0  0  0  0
  127.5555  136.5344  143.3076 C   0  0  0  0  0  0  0  0  0  0  0  0
  1  2  1  0
  2  3  1  0
  3  4  1  0
  4  5  1  0
  5  6  1  0
  6  7  1  0
  7  8  2  0
  8  9  1  0
  8 10  1  0
 10 11  1  0
 10 12  1  0
  4 13  2  0
 13 14  1  0
 14 15  2  0
 15 16  1  0
 16 17  2  0
 17 18  1  0
 18 19  2  0
 19  3  1  0
 12  5  1  0
 19 14  1  0
M  END
$$$$
