
     RDKit          3D

  8  7  0  0  0  0  0  0  0  0999 V2000
  150.6923  151.3536  146.7173 C   0  0  0  0  0  0  0  0  0  0  0  0
  149.3037  150.8417  146.6082 C   0  0  0  0  0  0  0  0  0  0  0  0
  149.0802  149.5953  146.9465 C   0  0  0  0  0  0  0  0  0  0  0  0
  147.7718  148.9874  146.8470 C   0  0  0  0  0  0  0  0  0  0  0  0
  147.5458  147.7311  147.0926 C   0  0  0  0  0  0  0  0  0  0  0  0
  147.4311  146.4852  146.9104 O   0  0  0  0  0  3  0  0  0  0  0  0
  146.1849  145.8247  147.1165 C   0  0  0  0  0  0  0  0  0  0  0  0
  146.3914  144.1226  147.5264 Cl  0  0  0  0  0  0  0  0  0  0  0  0
  1  2  1  0
  2  3  2  3
  3  4  1  0
  4  5  2  0
  5  6  2  0
  6  7  1  0
  7  8  1  0
M  CHG  1   6   1
M  END
$$$$
