
     RDKit          3D

  8  7  0  0  0  0  0  0  0  0999 V2000
  153.1743  149.3848  145.5068 C   0  0  0  0  0  0  0  0  0  0  0  0
  151.9045  148.8097  146.0159 C   0  0  0  0  0  0  0  0  0  0  0  0
  151.4662  147.7044  145.4645 C   0  0  0  0  0  0  0  0  0  0  0  0
  150.2605  147.0410  145.9091 C   0  0  0  0  0  0  0  0  0  0  0  0
  149.7735  145.9812  145.3354 C   0  0  0  0  0  0  0  0  0  0  0  0
  149.0159  145.2482  144.6373 O   0  0  0  0  0  3  0  0  0  0  0  0
  147.6961  144.9314  145.0725 C   0  0  0  0  0  0  0  0  0  0  0  0
  146.5065  145.1157  143.7845 Cl  0  0  0  0  0  0  0  0  0  0  0  0
  1  2  1  0
  2  3  2  3
  3  4  1  0
  4  5  2  0
  5  6  2  0
  6  7  1  0
  7  8  1  0
M  CHG  1   6   1
M  END
$$$$
