
     RDKit          3D

 28 30  0  0  0  0  0  0  0  0999 V2000
  -11.9005  -10.2190   -3.3448 C   0  0  0  0  0  0  0  0  0  0  0  0
  -11.5211  -10.6014   -4.6414 O   0  0  0  0  0  0  0  0  0  0  0  0
  -12.2670  -11.4792   -5.4249 C   0  0  0  0  0  0  0  0  0  0  0  0
  -13.4529  -11.9677   -4.9162 C   0  0  0  0  0  0  0  0  0  0  0  0
  -14.1618  -12.8349   -5.7246 C   0  0  0  0  0  0  0  0  0  0  0  0
  -13.6994  -13.1887   -6.9758 C   0  0  0  0  0  0  0  0  0  0  0  0
  -14.4622  -14.1090   -7.8206 C   0  0  0  0  0  0  0  0  0  0  0  0
  -13.7128  -14.4999   -9.0544 C   0  0  2  0  0  0  0  0  0  0  0  0
  -13.5866  -13.4068  -10.0820 C   0  0  0  0  0  0  0  0  0  0  0  0
  -13.5183  -14.0155  -11.3210 O   0  0  0  0  0  0  0  0  0  0  0  0
  -13.8255  -15.3574  -11.1899 C   0  0  2  0  0  0  0  0  0  0  0  0
  -14.5764  -15.8261  -12.2629 O   0  0  0  0  0  0  0  0  0  0  0  0
  -14.5419  -15.4917   -9.8620 C   0  0  1  0  0  0  0  0  0  0  0  0
  -14.3944  -16.8742   -9.2719 C   0  0  0  0  0  0  0  0  0  0  0  0
  -15.6306  -17.6518   -9.6383 C   0  0  0  0  0  0  0  0  0  0  0  0
  -15.8778  -18.8817   -9.0929 C   0  0  0  0  0  0  0  0  0  0  0  0
  -17.0048  -19.5816   -9.4323 C   0  0  0  0  0  0  0  0  0  0  0  0
  -17.9386  -19.0979  -10.3261 C   0  0  0  0  0  0  0  0  0  0  0  0
  -19.1017  -19.7413  -10.7219 O   0  0  0  0  0  0  0  0  0  0  0  0
  -19.6127  -20.9167  -10.1687 C   0  0  0  0  0  0  0  0  0  0  0  0
  -17.6734  -17.8595  -10.8647 C   0  0  0  0  0  0  0  0  0  0  0  0
  -18.5458  -17.3045  -11.7590 O   0  0  0  0  0  0  0  0  0  0  0  0
  -18.4203  -16.0437  -12.3442 C   0  0  0  0  0  0  0  0  0  0  0  0
  -16.5342  -17.1381  -10.5295 C   0  0  0  0  0  0  0  0  0  0  0  0
  -12.5044  -12.6661   -7.4298 C   0  0  0  0  0  0  0  0  0  0  0  0
  -11.7417  -11.7941   -6.6781 C   0  0  0  0  0  0  0  0  0  0  0  0
  -10.5363  -11.2386   -7.0813 O   0  0  0  0  0  0  0  0  0  0  0  0
  -10.0964  -11.4041   -8.4025 C   0  0  0  0  0  0  0  0  0  0  0  0
  1  2  1  0
  2  3  1  0
  3  4  2  0
  4  5  1  0
  5  6  2  0
  6  7  1  0
  8  7  1  1
  8  9  1  0
  9 10  1  0
 10 11  1  0
 11 12  1  6
 11 13  1  0
 13 14  1  1
 14 15  1  0
 15 16  2  0
 16 17  1  0
 17 18  2  0
 18 19  1  0
 19 20  1  0
 18 21  1  0
 21 22  1  0
 22 23  1  0
 21 24  2  0
  6 25  1  0
 25 26  2  0
 26 27  1  0
 27 28  1  0
 26  3  1  0
 13  8  1  0
 24 15  1  0
M  END
$$$$
