
     RDKit          3D

 17 17  0  0  0  0  0  0  0  0999 V2000
  157.4480  153.4988  149.4722 C   0  0  0  0  0  0  0  0  0  0  0  0
  157.9054  152.7664  148.2376 C   0  0  0  0  0  0  0  0  0  0  0  0
  156.8085  152.0792  147.5563 C   0  0  0  0  0  0  0  0  0  0  0  0
  155.8916  151.5078  147.0072 C   0  0  0  0  0  0  0  0  0  0  0  0
  154.7748  150.8069  146.3286 C   0  0  1  0  0  0  0  0  0  0  0  0
  154.4064  149.5542  147.1267 C   0  0  0  0  0  0  0  0  0  0  0  0
  153.7069  151.6757  146.2369 O   0  0  0  0  0  0  0  0  0  0  0  0
  153.2522  152.2421  145.0772 C   0  0  0  0  0  0  0  0  0  0  0  0
  153.5496  151.8023  143.8116 C   0  0  0  0  0  0  0  0  0  0  0  0
  153.0616  152.4136  142.6720 C   0  0  0  0  0  0  0  0  0  0  0  0
  152.2425  153.5092  142.7848 C   0  0  0  0  0  0  0  0  0  0  0  0
  151.9070  153.9993  144.0402 C   0  0  0  0  0  0  0  0  0  0  0  0
  151.0674  155.1222  144.1519 O   0  0  0  0  0  0  0  0  0  0  0  0
  152.4042  153.3746  145.1456 C   0  0  0  0  0  0  0  0  0  0  0  0
  152.0667  153.8699  146.4736 C   0  0  0  0  0  0  0  0  0  0  0  0
  150.9541  153.3193  147.2514 C   0  0  0  0  0  0  0  0  0  0  0  0
  152.7412  154.8070  146.9965 O   0  0  0  0  0  0  0  0  0  0  0  0
  1  2  1  0
  2  3  1  0
  3  4  3  0
  4  5  1  0
  5  6  1  1
  5  7  1  0
  7  8  1  0
  8  9  2  0
  9 10  1  0
 10 11  2  0
 11 12  1  0
 12 13  1  0
 12 14  2  0
 14 15  1  0
 15 16  1  0
 15 17  2  0
 14  8  1  0
M  END
$$$$
