
     RDKit          3D

 24 25  0  0  0  0  0  0  0  0999 V2000
   10.4844   43.1979   21.3117 C   0  0  0  0  0  0  0  0  0  0  0  0
   10.3807   42.7628   22.7346 C   0  0  0  0  0  0  0  0  0  0  0  0
   11.6658   42.8067   23.5094 C   0  0  0  0  0  0  0  0  0  0  0  0
   12.7261   42.1877   22.9174 O   0  0  0  0  0  0  0  0  0  0  0  0
   11.4305   42.1013   24.8516 C   0  0  0  0  0  0  0  0  0  0  0  0
   11.6356   40.6273   24.6755 C   0  0  0  0  0  0  0  0  0  0  0  0
   11.9415   44.2942   23.8242 C   0  0  0  0  0  0  0  0  0  0  0  0
   13.2797   44.3207   24.3468 N   0  0  0  0  0  0  0  0  0  0  0  0
   13.7605   45.5473   24.8509 C   0  0  0  0  0  0  0  0  0  0  0  0
   14.9644   45.5159   25.6985 C   0  0  0  0  0  0  0  0  0  0  0  0
   15.9753   44.5985   25.4031 C   0  0  0  0  0  0  0  0  0  0  0  0
   17.1509   44.5077   26.1167 C   0  0  0  0  0  0  0  0  0  0  0  0
   17.3339   45.3670   27.1733 C   0  0  0  0  0  0  0  0  0  0  0  0
   18.4905   45.2920   27.8911 F   0  0  0  0  0  0  0  0  0  0  0  0
   16.3742   46.2945   27.5140 C   0  0  0  0  0  0  0  0  0  0  0  0
   15.1917   46.3570   26.7645 C   0  0  0  0  0  0  0  0  0  0  0  0
   13.9072   46.5102   23.7138 C   0  0  0  0  0  0  0  0  0  0  0  0
   15.0999   46.5929   22.9929 C   0  0  0  0  0  0  0  0  0  0  0  0
   15.2620   47.4703   21.9468 C   0  0  0  0  0  0  0  0  0  0  0  0
   14.2224   48.3102   21.5770 C   0  0  0  0  0  0  0  0  0  0  0  0
   14.4026   49.1856   20.5236 O   0  0  0  0  0  0  0  0  0  0  0  0
   13.3156   49.9915   20.1279 C   0  0  0  0  0  0  0  0  0  0  0  0
   13.0306   48.2595   22.2624 C   0  0  0  0  0  0  0  0  0  0  0  0
   12.9097   47.3581   23.3128 C   0  0  0  0  0  0  0  0  0  0  0  0
  1  2  1  0
  2  3  1  0
  3  4  1  0
  3  5  1  0
  5  6  1  0
  3  7  1  0
  7  8  1  0
  8  9  1  0
  9 10  1  0
 10 11  2  0
 11 12  1  0
 12 13  2  0
 13 14  1  0
 13 15  1  0
 15 16  2  0
  9 17  1  0
 17 18  2  0
 18 19  1  0
 19 20  2  0
 20 21  1  0
 21 22  1  0
 20 23  1  0
 23 24  2  0
 16 10  1  0
 24 17  1  0
M  END
$$$$
