
     RDKit          3D

 24 25  0  0  0  0  0  0  0  0999 V2000
   58.1024   38.5124    2.9809 C   0  0  0  0  0  0  0  0  0  0  0  0
   57.5148   37.5532    3.9604 C   0  0  0  0  0  0  0  0  0  0  0  0
   56.5375   36.5712    3.3824 C   0  0  0  0  0  0  0  0  0  0  0  0
   55.5285   37.1162    2.6457 O   0  0  0  0  0  0  0  0  0  0  0  0
   55.8820   35.8182    4.5477 C   0  0  0  0  0  0  0  0  0  0  0  0
   54.8120   36.6779    5.1493 C   0  0  0  0  0  0  0  0  0  0  0  0
   57.3670   35.5377    2.5876 C   0  0  0  0  0  0  0  0  0  0  0  0
   56.6925   35.4129    1.3251 N   0  0  0  0  0  0  0  0  0  0  0  0
   57.0726   34.3467    0.4834 C   0  0  0  0  0  0  0  0  0  0  0  0
   56.1948   34.0243   -0.6542 C   0  0  0  0  0  0  0  0  0  0  0  0
   56.2305   32.7355   -1.1915 C   0  0  0  0  0  0  0  0  0  0  0  0
   55.4308   32.3258   -2.2366 C   0  0  0  0  0  0  0  0  0  0  0  0
   54.5537   33.2363   -2.7751 C   0  0  0  0  0  0  0  0  0  0  0  0
   53.7547   32.8493   -3.8096 F   0  0  0  0  0  0  0  0  0  0  0  0
   54.4713   34.5223   -2.2886 C   0  0  0  0  0  0  0  0  0  0  0  0
   55.3004   34.9021   -1.2246 C   0  0  0  0  0  0  0  0  0  0  0  0
   58.4895   34.5591    0.0483 C   0  0  0  0  0  0  0  0  0  0  0  0
   59.3785   33.4872   -0.0493 C   0  0  0  0  0  0  0  0  0  0  0  0
   60.6850   33.6551   -0.4432 C   0  0  0  0  0  0  0  0  0  0  0  0
   61.1584   34.9197   -0.7589 C   0  0  0  0  0  0  0  0  0  0  0  0
   62.4740   35.0702   -1.1527 O   0  0  0  0  0  0  0  0  0  0  0  0
   63.2653   36.0333   -0.4939 C   0  0  0  0  0  0  0  0  0  0  0  0
   60.3137   36.0024   -0.6755 C   0  0  0  0  0  0  0  0  0  0  0  0
   59.0012   35.7877   -0.2733 C   0  0  0  0  0  0  0  0  0  0  0  0
  1  2  1  0
  2  3  1  0
  3  4  1  0
  3  5  1  0
  5  6  1  0
  3  7  1  0
  7  8  1  0
  8  9  1  0
  9 10  1  0
 10 11  2  0
 11 12  1  0
 12 13  2  0
 13 14  1  0
 13 15  1  0
 15 16  2  0
  9 17  1  0
 17 18  2  0
 18 19  1  0
 19 20  2  0
 20 21  1  0
 21 22  1  0
 20 23  1  0
 23 24  2  0
 16 10  1  0
 24 17  1  0
M  END
$$$$
