
     RDKit          3D

 22 24  0  0  0  0  0  0  0  0999 V2000
  139.6604  150.1050  149.8834 C   0  0  0  0  0  0  0  0  0  0  0  0
  138.3028  150.3944  149.6107 O   0  0  0  0  0  0  0  0  0  0  0  0
  137.9063  151.3005  148.6423 C   0  0  0  0  0  0  0  0  0  0  0  0
  136.8429  152.1277  148.9257 C   0  0  0  0  0  0  0  0  0  0  0  0
  136.3916  153.0667  147.9893 C   0  0  0  0  0  0  0  0  0  0  0  0
  135.3015  153.8846  148.3337 N   0  0  0  0  0  0  0  0  0  0  0  0
  134.7309  154.9294  147.5693 C   0  0  0  0  0  0  0  0  0  0  0  0
  133.6619  155.6575  147.9207 N   0  0  0  0  0  0  0  0  0  0  0  0
  133.1328  156.6423  147.1887 C   0  0  0  0  0  0  0  0  0  0  0  0
  132.0007  157.3943  147.5885 N   0  0  0  0  0  0  0  0  0  0  0  0
  133.7546  156.9149  145.9739 C   0  0  0  0  0  0  0  0  0  0  0  0
  133.2561  157.9193  145.1731 C   0  0  0  0  0  0  0  0  0  0  0  0
  133.8755  158.1857  143.9707 C   0  0  0  0  0  0  0  0  0  0  0  0
  134.9814  157.4378  143.5994 C   0  0  0  0  0  0  0  0  0  0  0  0
  135.4895  156.4329  144.3882 C   0  0  0  0  0  0  0  0  0  0  0  0
  134.8539  156.1713  145.6050 C   0  0  0  0  0  0  0  0  0  0  0  0
  135.3349  155.2070  146.3708 N   0  0  0  0  0  0  0  0  0  0  0  0
  137.0775  153.0939  146.7985 C   0  0  0  0  0  0  0  0  0  0  0  0
  138.1548  152.2540  146.5146 C   0  0  0  0  0  0  0  0  0  0  0  0
  138.7597  152.3790  145.2830 O   0  0  0  0  0  0  0  0  0  0  0  0
  138.6436  153.5401  144.4957 C   0  0  0  0  0  0  0  0  0  0  0  0
  138.5827  151.3409  147.4436 C   0  0  0  0  0  0  0  0  0  0  0  0
  1  2  1  0
  2  3  1  0
  3  4  2  0
  4  5  1  0
  5  6  1  0
  6  7  1  0
  7  8  2  0
  8  9  1  0
  9 10  1  0
  9 11  2  0
 11 12  1  0
 12 13  2  0
 13 14  1  0
 14 15  2  0
 15 16  1  0
 16 17  2  0
  5 18  2  0
 18 19  1  0
 19 20  1  0
 20 21  1  0
 19 22  2  0
 22  3  1  0
 17  7  1  0
 16 11  1  0
M  END
$$$$
