
     RDKit          3D

 14 13  0  0  0  0  0  0  0  0999 V2000
  129.7105  140.0690  137.1956 N   0  0  0  0  0  0  0  0  0  0  0  0
  129.1478  138.7607  137.4075 C   0  0  0  0  0  0  0  0  0  0  0  0
  129.8228  137.9629  138.4149 C   0  0  0  0  0  0  0  0  0  0  0  0
  129.0646  137.3852  139.3200 C   0  0  0  0  0  0  0  0  0  0  0  0
  128.4580  136.8192  140.3257 C   0  0  0  0  0  0  0  0  0  0  0  0
  127.1764  137.3622  140.7424 C   0  0  0  0  0  0  0  0  0  0  0  0
  126.6960  136.8281  141.9338 O   0  0  0  0  0  0  0  0  0  0  0  0
  127.5641  137.1006  142.9893 C   0  0  0  0  0  0  0  0  0  0  0  0
  127.4093  138.5300  143.3947 C   0  0  0  0  0  0  0  0  0  0  0  0
  128.3141  139.4417  143.0186 C   0  0  0  0  0  0  0  0  0  0  0  0
  128.1001  141.1438  143.2793 Cl  0  0  0  0  0  0  0  0  0  0  0  0
  127.1717  136.2128  144.1214 C   0  0  0  0  0  0  0  0  0  0  0  0
  127.9948  135.3070  144.6281 C   0  0  0  0  0  0  0  0  0  0  0  0
  127.4114  134.2997  145.9373 Cl  0  0  0  0  0  0  0  0  0  0  0  0
  1  2  1  0
  2  3  1  0
  3  4  2  0
  4  5  2  0
  5  6  1  0
  6  7  1  0
  7  8  1  0
  8  9  1  0
  9 10  2  3
 10 11  1  0
  8 12  1  0
 12 13  2  3
 13 14  1  0
M  END
$$$$
