
     RDKit          3D

 29 30  0  0  0  0  0  0  0  0999 V2000
  152.7061  154.3233  160.5192 C   0  0  0  0  0  0  0  0  0  0  0  0
  151.8161  154.2714  159.3145 C   0  0  0  0  0  0  0  0  0  0  0  0
  152.4068  155.0369  158.2865 O   0  0  0  0  0  0  0  0  0  0  0  0
  153.0407  154.3994  157.2538 C   0  0  0  0  0  0  0  0  0  0  0  0
  154.1445  153.8491  157.4754 O   0  0  0  0  0  0  0  0  0  0  0  0
  152.4926  154.3268  155.8959 C   0  0  0  0  0  0  0  0  0  0  0  0
  153.2848  153.9211  154.9175 C   0  0  0  0  0  0  0  0  0  0  0  0
  152.8374  153.8204  153.5705 N   0  0  0  0  0  0  0  0  0  0  0  0
  153.7539  153.3689  152.5444 C   0  0  0  0  0  0  0  0  0  0  0  0
  154.7556  154.4407  152.2129 C   0  0  0  0  0  0  0  0  0  0  0  0
  155.5927  154.0410  151.1955 O   0  0  0  0  0  0  0  0  0  0  0  0
  156.9220  154.3613  151.4469 C   0  0  0  0  0  0  0  0  0  0  0  0
  151.4868  154.1820  153.3370 C   0  0  0  0  0  0  0  0  0  0  0  0
  150.6619  154.5884  154.2625 C   0  0  0  0  0  0  0  0  0  0  0  0
  149.2764  154.9313  153.8617 C   0  0  0  0  0  0  0  0  0  0  0  0
  148.9270  155.0174  152.6610 O   0  0  0  0  0  0  0  0  0  0  0  0
  148.3182  155.1690  154.8325 O   0  0  0  0  0  0  0  0  0  0  0  0
  147.5051  154.1140  155.2861 C   0  0  0  0  0  0  0  0  0  0  0  0
  147.7236  153.7511  156.7184 C   0  0  0  0  0  0  0  0  0  0  0  0
  151.0836  154.7081  155.6747 C   0  0  0  0  0  0  0  0  0  0  0  0
  150.8049  156.0817  156.1993 C   0  0  0  0  0  0  0  0  0  0  0  0
  151.4315  157.1592  155.6239 C   0  0  0  0  0  0  0  0  0  0  0  0
  151.1914  158.4453  156.0908 C   0  0  0  0  0  0  0  0  0  0  0  0
  150.3218  158.6644  157.1378 C   0  0  0  0  0  0  0  0  0  0  0  0
  150.0918  160.0035  157.6005 N   0  0  0  0  0  4  0  0  0  0  0  0
  149.3182  160.2036  158.5553 O   0  0  0  0  0  0  0  0  0  0  0  0
  150.7465  161.0271  156.9593 O   0  0  0  0  0  1  0  0  0  0  0  0
  149.7035  157.5795  157.7024 C   0  0  0  0  0  0  0  0  0  0  0  0
  149.9346  156.2933  157.2461 C   0  0  0  0  0  0  0  0  0  0  0  0
  1  2  1  0
  2  3  1  0
  3  4  1  0
  4  5  2  0
  4  6  1  0
  6  7  2  0
  7  8  1  0
  8  9  1  0
  9 10  1  0
 10 11  1  0
 11 12  1  0
  8 13  1  0
 13 14  2  0
 14 15  1  0
 15 16  2  0
 15 17  1  0
 17 18  1  0
 18 19  1  0
 14 20  1  0
 20 21  1  0
 21 22  2  0
 22 23  1  0
 23 24  2  0
 24 25  1  0
 25 26  2  0
 25 27  1  0
 24 28  1  0
 28 29  2  0
 20  6  1  0
 29 21  1  0
M  CHG  2  25   1  27  -1
M  END
$$$$
