
     RDKit          3D

 18 18  0  0  0  0  0  0  0  0999 V2000
   51.6770   59.6615    6.3987 C   0  0  0  0  0  3  0  0  0  0  0  0
   51.1738   60.8757    6.4774 C   0  0  0  0  0  0  0  0  0  0  0  0
   50.7205   61.9331    6.5592 C   0  0  0  0  0  0  0  0  0  0  0  0
   49.2041   62.1565    6.4780 C   0  0  0  0  0  0  0  0  0  0  0  0
   48.2856   62.1067    7.7342 C   0  0  0  0  0  0  0  0  0  0  0  0
   46.8583   62.3331    7.4662 N   0  0  0  0  0  0  0  0  0  0  0  0
   45.9423   62.2245    8.4727 C   0  0  0  0  0  0  0  0  0  0  0  0
   46.7203   62.2041    9.7745 C   0  0  0  0  0  0  0  0  0  0  0  0
   45.8707   61.7887   10.7748 O   0  0  0  0  0  0  0  0  0  0  0  0
   45.8548   60.4539   10.8690 N   0  0  0  0  0  0  0  0  0  0  0  0
   45.9489   59.7246   12.0475 C   0  0  0  0  0  0  0  0  0  0  0  0
   45.6942   60.3670   13.2613 C   0  0  0  0  0  0  0  0  0  0  0  0
   45.6793   59.6911   14.4916 C   0  0  0  0  0  0  0  0  0  0  0  0
   45.9053   58.3191   14.5578 C   0  0  0  0  0  0  0  0  0  0  0  0
   45.8515   57.3914   15.9788 Cl  0  0  0  0  0  0  0  0  0  0  0  0
   46.1868   57.7342   13.3372 C   0  0  0  0  0  0  0  0  0  0  0  0
   46.1161   55.9219   13.1873 Cl  0  0  0  0  0  0  0  0  0  0  0  0
   46.1818   58.3968   12.2095 C   0  0  0  0  0  0  0  0  0  0  0  0
  1  2  3  0
  2  3  1  0
  3  4  1  0
  4  5  1  0
  5  6  1  0
  6  7  1  0
  7  8  1  0
  8  9  1  0
  9 10  1  0
 10 11  1  0
 11 12  2  0
 12 13  1  0
 13 14  2  0
 14 15  1  0
 14 16  1  0
 16 17  1  0
 16 18  2  0
 18 11  1  0
M  CHG  1   1  -1
M  END
$$$$
