
     RDKit          3D

 18 18  0  0  0  0  0  0  0  0999 V2000
   33.8531   51.0298   15.7625 C   0  0  0  0  0  3  0  0  0  0  0  0
   34.6208   50.4360   16.6523 C   0  0  0  0  0  0  0  0  0  0  0  0
   35.2778   49.9110   17.4416 C   0  0  0  0  0  0  0  0  0  0  0  0
   35.2663   50.3577   18.9101 C   0  0  0  0  0  0  0  0  0  0  0  0
   36.1631   49.6878   19.9923 C   0  0  0  0  0  0  0  0  0  0  0  0
   37.1206   48.6992   19.4768 N   0  0  0  0  0  0  0  0  0  0  0  0
   37.9357   48.0171   20.3337 C   0  0  0  0  0  0  0  0  0  0  0  0
   37.1979   46.7524   20.7291 C   0  0  0  0  0  0  0  0  0  0  0  0
   36.7107   46.9220   22.0054 O   0  0  0  0  0  0  0  0  0  0  0  0
   35.4310   47.3128   21.9838 N   0  0  0  0  0  0  0  0  0  0  0  0
   34.7267   47.8372   23.0602 C   0  0  0  0  0  0  0  0  0  0  0  0
   33.4441   48.3463   22.8443 C   0  0  0  0  0  0  0  0  0  0  0  0
   32.6259   48.8143   23.8847 C   0  0  0  0  0  0  0  0  0  0  0  0
   33.0574   48.7758   25.2077 C   0  0  0  0  0  0  0  0  0  0  0  0
   32.1322   49.2570   26.5474 Cl  0  0  0  0  0  0  0  0  0  0  0  0
   34.3444   48.2970   25.3676 C   0  0  0  0  0  0  0  0  0  0  0  0
   34.9092   47.8157   27.0293 Cl  0  0  0  0  0  0  0  0  0  0  0  0
   35.0730   47.8605   24.3729 C   0  0  0  0  0  0  0  0  0  0  0  0
  1  2  3  0
  2  3  1  0
  3  4  1  0
  4  5  1  0
  5  6  1  0
  6  7  1  0
  7  8  1  0
  8  9  1  0
  9 10  1  0
 10 11  1  0
 11 12  2  0
 12 13  1  0
 13 14  2  0
 14 15  1  0
 14 16  1  0
 16 17  1  0
 16 18  2  0
 18 11  1  0
M  CHG  1   1  -1
M  END
$$$$
