
     RDKit          3D

 35 35  0  0  0  0  0  0  0  0999 V2000
   38.7187   16.0504    7.3216 C   0  0  0  0  0  0  0  0  0  0  0  0
   38.9409   17.4623    6.9803 C   0  0  0  0  0  0  0  0  0  0  0  0
   38.3292   18.4368    7.5931 C   0  0  0  0  0  0  0  0  0  0  0  0
   37.7862   19.5787    8.0140 C   0  0  0  0  0  0  0  0  0  0  0  0
   37.9347   20.7697    8.4892 C   0  0  0  0  0  0  0  0  0  0  0  0
   37.9449   21.1211    9.8534 N   0  0  0  0  0  0  0  0  0  0  0  0
   37.3167   22.3633   10.2624 C   0  0  0  0  0  0  0  0  0  0  0  0
   37.8415   23.5323   10.0392 C   0  0  0  0  0  0  0  0  0  0  0  0
   37.1927   24.6977   10.6257 N   0  0  0  0  0  0  0  0  0  0  0  0
   37.7412   25.8602   10.3704 C   0  0  0  0  0  0  0  0  0  0  0  0
   37.1336   27.0940   10.8895 C   0  0  0  0  0  0  0  0  0  0  0  0
   37.3766   27.2011   12.3794 C   0  0  0  0  0  0  0  0  0  0  0  0
   38.7383   27.6327   12.5933 N   0  0  0  0  0  0  0  0  0  0  0  0
   38.9599   27.6357   13.9879 C   0  0  0  0  0  0  0  0  0  0  0  0
   39.2953   26.2645   14.5202 C   0  0  0  0  0  0  0  0  0  0  0  0
   38.7481   26.3900   15.9006 O   0  0  0  0  0  0  0  0  0  0  0  0
   39.0388   25.1561   16.3611 N   0  0  0  0  0  0  0  0  0  0  0  0
   38.6600   24.6288   17.6631 C   0  0  0  0  0  0  0  0  0  0  0  0
   39.3835   25.2254   18.7726 C   0  0  0  0  0  0  0  0  0  0  0  0
   40.2067   24.9683   19.7002 C   0  0  0  0  0  0  0  0  0  0  0  0
   40.7822   25.7091   20.7146 C   0  0  0  0  0  0  0  0  0  0  0  0
   41.6984   24.8799   21.5324 C   0  0  0  0  0  0  0  0  0  0  0  0
   42.1342   25.7407   22.6335 C   0  0  0  0  0  0  0  0  0  0  0  0
   42.4935   26.4684   23.5452 C   0  0  0  0  0  0  0  0  0  0  0  0
   42.9310   27.3539   24.6607 C   0  0  0  0  0  0  0  0  0  0  0  0
   43.0627   28.6510   24.6525 C   0  0  0  0  0  0  0  0  0  0  0  0
   43.1210   29.4137   25.8895 C   0  0  0  0  0  0  0  0  0  0  0  0
   43.0322   28.6491   27.0378 C   0  0  0  0  0  0  0  0  0  0  0  0
   42.8126   29.5449   28.6129 Cl  0  0  0  0  0  0  0  0  0  0  0  0
   42.9112   27.3347   27.0304 C   0  0  0  0  0  0  0  0  0  0  0  0
   42.8697   26.3030   28.5072 Cl  0  0  0  0  0  0  0  0  0  0  0  0
   42.8570   26.5744   25.8507 C   0  0  0  0  0  0  0  0  0  0  0  0
   37.7401   23.8829   17.7946 N   0  0  0  0  0  0  0  0  0  0  0  0
   36.7756   22.9881   18.0576 C   0  0  0  0  0  0  0  0  0  0  0  0
   35.6401   22.8309   17.0154 C   0  0  0  0  0  0  0  0  0  0  0  0
  1  2  1  0
  2  3  2  0
  3  4  2  0
  4  5  2  0
  5  6  1  0
  6  7  1  0
  7  8  2  3
  8  9  1  0
  9 10  2  3
 10 11  1  0
 11 12  1  0
 12 13  1  0
 13 14  1  0
 14 15  1  0
 15 16  1  0
 16 17  1  0
 17 18  1  0
 18 19  1  0
 19 20  2  3
 20 21  1  0
 21 22  2  3
 22 23  1  0
 23 24  3  0
 24 25  1  0
 25 26  2  0
 26 27  1  0
 27 28  2  0
 28 29  1  0
 28 30  1  0
 30 31  1  0
 30 32  2  0
 18 33  2  3
 33 34  1  0
 34 35  1  0
 32 25  1  0
M  END
$$$$
