
     RDKit          3D

 29 32  0  0  0  0  0  0  0  0999 V2000
  116.3528  111.8673   90.4532 C   0  0  0  0  0  0  0  0  0  0  0  0
  117.5740  112.4015   91.1586 C   0  0  0  0  0  0  0  0  0  0  0  0
  117.8625  113.8396   90.7235 C   0  0  0  0  0  0  0  0  0  0  0  0
  119.1197  113.9196   90.0125 N   0  0  0  0  0  0  0  0  0  0  0  0
  119.1198  113.6916   88.6125 C   0  0  0  0  0  0  0  0  0  0  0  0
  117.9836  113.3061   87.9758 N   0  0  0  0  0  0  0  0  0  0  0  0
  117.8930  113.0688   86.6569 C   0  0  0  0  0  0  0  0  0  0  0  0
  116.6225  112.6768   86.0901 N   0  0  0  0  0  0  0  0  0  0  0  0
  115.4904  112.1808   86.8247 C   0  0  0  0  0  0  0  0  0  0  0  0
  114.4394  112.9420   87.2511 C   0  0  0  0  0  0  0  0  0  0  0  0
  113.3375  113.2523   86.2455 C   0  0  0  0  0  0  0  0  0  0  0  0
  113.4572  113.2971   84.8653 C   0  0  0  0  0  0  0  0  0  0  0  0
  112.3704  114.0744   84.3177 C   0  0  0  0  0  0  0  0  0  0  0  0
  111.7624  115.3118   85.4772 Cl  0  0  0  0  0  0  0  0  0  0  0  0
  114.5435  112.6703   84.1694 N   0  0  0  0  0  0  0  0  0  0  0  0
  114.6168  111.2960   83.7173 C   0  0  0  0  0  0  0  0  0  0  0  0
  114.2610  110.2923   84.8199 C   0  0  0  0  0  0  0  0  0  0  0  0
  115.4948  109.9856   85.6452 C   0  0  0  0  0  0  0  0  0  0  0  0
  115.3125  110.7112   86.9899 C   0  0  0  0  0  0  0  0  0  0  0  0
  115.7584  113.3213   83.9160 O   0  0  0  0  0  0  0  0  0  0  0  0
  116.8282  112.9425   84.6253 C   0  0  0  0  0  0  0  0  0  0  0  0
  117.9247  114.3617   84.4429 Cl  0  0  0  0  0  0  0  0  0  0  0  0
  118.9810  113.2168   85.9092 N   0  0  0  0  0  0  0  0  0  0  0  0
  120.1461  113.5922   86.4399 C   0  0  0  0  0  0  0  0  0  0  0  0
  121.2666  113.7339   85.6036 C   0  0  0  0  0  0  0  0  0  0  0  0
  122.4481  114.1201   86.1758 C   0  0  0  0  0  0  0  0  0  0  0  0
  122.5277  114.3599   87.5269 C   0  0  0  0  0  0  0  0  0  0  0  0
  121.4290  114.2235   88.3621 C   0  0  0  0  0  0  0  0  0  0  0  0
  120.2207  113.8313   87.7938 C   0  0  0  0  0  0  0  0  0  0  0  0
  1  2  1  0
  2  3  1  0
  3  4  1  0
  4  5  1  0
  5  6  2  0
  6  7  1  0
  7  8  1  0
  8  9  1  0
  9 10  2  0
 10 11  1  0
 11 12  2  0
 12 13  1  0
 13 14  1  0
 12 15  1  0
 15 16  1  0
 16 17  1  0
 17 18  1  0
 18 19  1  0
 15 20  1  0
 20 21  1  0
 21 22  1  0
  7 23  2  0
 23 24  1  0
 24 25  2  0
 25 26  1  0
 26 27  2  0
 27 28  1  0
 28 29  2  0
 29  5  1  0
 21  8  1  0
 29 24  1  0
 19  9  1  0
M  END
$$$$
