
     RDKit          3D

 24 26  0  0  0  0  0  0  0  0999 V2000
  171.1040  149.1919  163.0147 C   0  0  0  0  0  0  0  0  0  0  0  0
  170.9705  147.9099  162.4294 O   0  0  0  0  0  0  0  0  0  0  0  0
  172.0294  147.0737  162.1793 C   0  0  0  0  0  0  0  0  0  0  0  0
  173.1610  147.3273  162.6288 O   0  0  0  0  0  0  0  0  0  0  0  0
  171.8203  145.8813  161.3806 C   0  0  0  0  0  0  0  0  0  0  0  0
  170.6202  145.1991  161.3626 C   0  0  0  0  0  0  0  0  0  0  0  0
  170.4373  144.0688  160.5993 C   0  0  0  0  0  0  0  0  0  0  0  0
  171.4481  143.5799  159.8264 C   0  0  0  0  0  0  0  0  0  0  0  0
  171.3062  142.4199  159.0241 N   0  0  0  0  0  0  0  0  0  0  0  0
  170.1611  141.6182  158.9440 C   0  0  0  0  0  0  0  0  0  0  0  0
  169.9584  140.6255  159.8656 C   0  0  0  0  0  0  0  0  0  0  0  0
  168.8252  139.8097  159.8046 C   0  0  0  0  0  0  0  0  0  0  0  0
  168.5886  138.7284  160.7954 C   0  0  0  0  0  0  0  0  0  0  0  0
  167.9435  140.0312  158.8139 N   0  0  0  0  0  0  0  0  0  0  0  0
  168.0896  140.9872  157.8835 C   0  0  0  0  0  0  0  0  0  0  0  0
  167.1740  141.1815  156.8799 C   0  0  0  0  0  0  0  0  0  0  0  0
  166.0567  140.3910  156.8065 O   0  0  0  0  0  0  0  0  0  0  0  0
  165.0802  140.4638  155.8134 C   0  0  0  0  0  0  0  0  0  0  0  0
  167.3476  142.1680  155.9236 C   0  0  0  0  0  0  0  0  0  0  0  0
  168.4579  142.9806  155.9657 C   0  0  0  0  0  0  0  0  0  0  0  0
  169.3744  142.7720  156.9866 C   0  0  0  0  0  0  0  0  0  0  0  0
  169.2297  141.8003  157.9529 C   0  0  0  0  0  0  0  0  0  0  0  0
  172.6423  144.2599  159.8452 C   0  0  0  0  0  0  0  0  0  0  0  0
  172.8519  145.3900  160.5974 C   0  0  0  0  0  0  0  0  0  0  0  0
  1  2  1  0
  2  3  1  0
  3  4  2  0
  3  5  1  0
  5  6  2  0
  6  7  1  0
  7  8  2  0
  8  9  1  0
  9 10  1  0
 10 11  2  0
 11 12  1  0
 12 13  1  0
 12 14  2  0
 14 15  1  0
 15 16  2  0
 16 17  1  0
 17 18  1  0
 16 19  1  0
 19 20  2  0
 20 21  1  0
 21 22  2  0
  8 23  1  0
 23 24  2  0
 24  5  1  0
 22 10  1  0
 22 15  1  0
M  END
$$$$
