
     RDKit          3D

 24 26  0  0  0  0  0  0  0  0999 V2000
  172.4275  148.0540  162.9317 C   0  0  0  0  0  0  0  0  0  0  0  0
  172.1775  147.2285  161.8091 O   0  0  0  0  0  0  0  0  0  0  0  0
  171.5100  146.0316  161.8786 C   0  0  0  0  0  0  0  0  0  0  0  0
  171.0853  145.6014  162.9655 O   0  0  0  0  0  0  0  0  0  0  0  0
  171.3001  145.2633  160.6665 C   0  0  0  0  0  0  0  0  0  0  0  0
  172.2080  145.2521  159.6265 C   0  0  0  0  0  0  0  0  0  0  0  0
  171.9945  144.5178  158.4824 C   0  0  0  0  0  0  0  0  0  0  0  0
  170.8653  143.7682  158.3371 C   0  0  0  0  0  0  0  0  0  0  0  0
  170.6026  142.9962  157.1776 N   0  0  0  0  0  0  0  0  0  0  0  0
  169.5572  142.0766  157.0290 C   0  0  0  0  0  0  0  0  0  0  0  0
  169.2478  141.2248  158.0560 C   0  0  0  0  0  0  0  0  0  0  0  0
  168.2114  140.2956  157.9307 C   0  0  0  0  0  0  0  0  0  0  0  0
  167.8615  139.3641  159.0336 C   0  0  0  0  0  0  0  0  0  0  0  0
  167.5304  140.2659  156.7716 N   0  0  0  0  0  0  0  0  0  0  0  0
  167.7888  141.0743  155.7321 C   0  0  0  0  0  0  0  0  0  0  0  0
  167.0792  141.0123  154.5591 C   0  0  0  0  0  0  0  0  0  0  0  0
  166.0589  140.1078  154.4202 O   0  0  0  0  0  0  0  0  0  0  0  0
  165.2804  139.9385  153.2755 C   0  0  0  0  0  0  0  0  0  0  0  0
  167.3674  141.8495  153.4944 C   0  0  0  0  0  0  0  0  0  0  0  0
  168.3856  142.7703  153.5979 C   0  0  0  0  0  0  0  0  0  0  0  0
  169.0937  142.8210  154.7903 C   0  0  0  0  0  0  0  0  0  0  0  0
  168.8306  142.0029  155.8674 C   0  0  0  0  0  0  0  0  0  0  0  0
  169.9624  143.7802  159.3731 C   0  0  0  0  0  0  0  0  0  0  0  0
  170.1503  144.5038  160.5255 C   0  0  0  0  0  0  0  0  0  0  0  0
  1  2  1  0
  2  3  1  0
  3  4  2  0
  3  5  1  0
  5  6  2  0
  6  7  1  0
  7  8  2  0
  8  9  1  0
  9 10  1  0
 10 11  2  0
 11 12  1  0
 12 13  1  0
 12 14  2  0
 14 15  1  0
 15 16  2  0
 16 17  1  0
 17 18  1  0
 16 19  1  0
 19 20  2  0
 20 21  1  0
 21 22  2  0
  8 23  1  0
 23 24  2  0
 24  5  1  0
 22 10  1  0
 22 15  1  0
M  END
$$$$
