
     RDKit          3D

 29 31  0  0  0  0  0  0  0  0999 V2000
  151.0562  152.8750  146.4810 C   0  0  0  0  0  0  0  0  0  0  0  0
  150.4172  152.4688  145.3319 O   0  0  0  0  0  0  0  0  0  0  0  0
  151.2609  152.1482  144.2897 C   0  0  0  0  0  0  0  0  0  0  0  0
  151.0801  150.7449  143.7915 C   0  0  0  0  0  0  0  0  0  0  0  0
  151.1016  149.7211  144.8697 C   0  0  0  0  0  0  0  0  0  0  0  0
  150.2117  148.8924  145.1437 N   0  0  0  0  0  0  0  0  0  0  0  0
  150.0924  147.8977  146.1028 C   0  0  0  0  0  0  0  0  0  0  0  0
  150.5185  146.5642  145.8091 N   0  0  0  0  0  0  0  0  0  0  0  0
  149.7198  145.5320  145.1745 C   0  0  0  0  0  0  0  0  0  0  0  0
  149.7719  144.2678  145.8185 C   0  0  0  0  0  0  0  0  0  0  0  0
  148.9175  143.3441  145.1882 C   0  0  0  0  0  0  0  0  0  0  0  0
  148.1233  143.6398  144.0946 C   0  0  0  0  0  0  0  0  0  0  0  0
  148.0443  144.8717  143.4931 C   0  0  0  0  0  0  0  0  0  0  0  0
  146.6025  145.4802  142.4625 Cl  0  0  0  0  0  0  0  0  0  0  0  0
  148.9074  145.7355  144.0957 C   0  0  0  0  0  0  0  0  0  0  0  0
  149.1568  147.0790  143.5524 O   0  0  0  0  0  0  0  0  0  0  0  0
  150.1188  146.8192  142.3972 C   0  0  0  0  0  0  0  0  0  0  0  0
  150.8895  145.5630  142.6385 C   0  0  0  0  0  0  0  0  0  0  0  0
  150.7047  144.2977  142.4204 C   0  0  0  0  0  0  0  0  0  0  0  0
  152.1656  143.2598  143.0111 Cl  0  0  0  0  0  0  0  0  0  0  0  0
  149.7686  143.3848  141.8087 C   0  0  0  0  0  0  0  0  0  0  0  0
  148.7508  142.6352  142.0087 C   0  0  0  0  0  0  0  0  0  0  0  0
  147.9310  142.3437  143.2836 C   0  0  0  0  0  0  0  0  0  0  0  0
  152.2500  145.9409  143.2917 C   0  0  0  0  0  0  0  0  0  0  0  0
  152.4938  147.1568  143.3059 N   0  0  0  0  0  0  0  0  0  0  0  0
  153.1710  148.1934  143.5553 N   0  0  0  0  0  0  0  0  0  0  0  0
  153.8506  149.1543  143.7347 C   0  0  0  0  0  0  0  0  0  0  0  0
  153.5172  150.0284  144.8511 N   0  0  0  0  0  0  0  0  0  0  0  0
  152.3606  149.6937  145.7010 C   0  0  0  0  0  0  0  0  0  0  0  0
  1  2  1  0
  2  3  1  0
  3  4  1  0
  4  5  1  0
  5  6  2  0
  6  7  1  0
  7  8  1  0
  8  9  1  0
  9 10  2  0
 10 11  1  0
 11 12  2  0
 12 13  1  0
 13 14  1  0
 13 15  2  0
 15 16  1  0
 16 17  1  0
 17 18  1  0
 18 19  2  0
 19 20  1  0
 19 21  1  0
 21 22  2  0
 22 23  1  0
 18 24  1  0
 24 25  2  0
 25 26  1  0
 26 27  2  0
 27 28  1  0
 28 29  1  0
 29  5  1  0
 15  9  1  0
 23 12  1  0
M  END
$$$$
