
     RDKit          3D

 24 25  0  0  0  0  0  0  0  0999 V2000
  127.8158  144.1063  149.3692 C   0  0  0  0  0  0  0  0  0  0  0  0
  127.2225  143.4212  148.4117 C   0  0  0  0  0  0  0  0  0  0  0  0
  125.7153  144.0090  147.7357 Cl  0  0  0  0  0  0  0  0  0  0  0  0
  127.7730  142.1576  147.8864 C   0  0  0  0  0  0  0  0  0  0  0  0
  127.1794  141.6591  146.7950 C   0  0  0  0  0  0  0  0  0  0  0  0
  127.5915  140.4062  146.1142 C   0  0  0  0  0  0  0  0  0  0  0  0
  129.0328  140.1664  146.3179 N   0  0  0  0  0  0  0  0  0  0  0  0
  127.3924  140.6433  144.6330 C   0  0  0  0  0  0  0  0  0  0  0  0
  127.3150  139.7835  143.8458 N   0  0  0  0  0  0  0  0  0  0  0  0
  127.2778  138.5495  143.2797 C   0  0  0  0  0  0  0  0  0  0  0  0
  128.6304  138.0145  142.8833 C   0  0  0  0  0  0  0  0  0  0  0  0
  129.3438  137.4292  143.8043 N   0  0  0  0  0  0  0  0  0  0  0  0
  128.7106  136.8976  144.8969 O   0  0  0  0  0  0  0  0  0  0  0  0
  127.3414  136.9743  145.0325 C   0  0  0  0  0  0  0  0  0  0  0  0
  126.6486  137.5521  144.1250 N   0  0  0  0  0  0  0  0  0  0  0  0
  126.6644  136.4205  146.1712 N   0  0  0  0  0  0  0  0  0  0  0  0
  125.2049  136.5084  146.2711 C   0  0  0  0  0  0  0  0  0  0  0  0
  124.7565  137.0600  147.5873 C   0  0  0  0  0  0  0  0  0  0  0  0
  125.7362  136.9818  148.5699 O   0  0  0  0  0  0  0  0  0  0  0  0
  125.6592  138.1232  149.3668 C   0  0  0  0  0  0  0  0  0  0  0  0
  126.8130  138.9403  149.2825 C   0  0  0  0  0  0  0  0  0  0  0  0
  127.7361  139.5881  149.2344 C   0  0  0  0  0  0  0  0  0  0  0  0
  128.8382  140.3429  149.1597 N   0  0  0  0  0  0  0  0  0  0  0  0
  128.9021  141.5171  148.5599 C   0  0  0  0  0  0  0  0  0  0  0  0
  1  2  2  0
  2  3  1  0
  2  4  1  0
  4  5  2  0
  5  6  1  0
  6  7  1  0
  6  8  1  0
  8  9  2  0
  9 10  1  0
 10 11  1  0
 11 12  2  0
 12 13  1  0
 13 14  1  0
 14 15  2  0
 14 16  1  0
 16 17  1  0
 17 18  1  0
 18 19  1  0
 19 20  1  0
 20 21  1  0
 21 22  3  0
 22 23  1  0
 23 24  2  0
 24  4  1  0
 15 10  1  0
M  END
$$$$
