
     RDKit          3D

 24 25  0  0  0  0  0  0  0  0999 V2000
  152.2589  146.3003  144.8499 C   0  0  0  0  0  0  0  0  0  0  0  0
  152.2255  147.2403  146.0188 C   0  0  0  0  0  0  0  0  0  0  0  0
  153.1841  148.2489  145.7921 O   0  0  0  0  0  0  0  0  0  0  0  0
  152.7960  149.5162  145.3813 C   0  0  0  0  0  0  0  0  0  0  0  0
  151.5997  149.6515  145.0196 O   0  0  0  0  0  0  0  0  0  0  0  0
  153.7386  150.6503  145.3685 C   0  0  0  0  0  0  0  0  0  0  0  0
  154.9527  150.4370  145.8431 C   0  0  0  0  0  0  0  0  0  0  0  0
  155.9197  151.4771  145.8662 N   0  0  0  0  0  0  0  0  0  0  0  0
  157.2732  151.2329  146.3971 C   0  0  0  0  0  0  0  0  0  0  0  0
  155.5472  152.7417  145.3690 C   0  0  0  0  0  0  0  0  0  0  0  0
  154.3455  152.9986  144.8858 C   0  0  0  0  0  0  0  0  0  0  0  0
  154.0461  154.3364  144.3919 C   0  0  0  0  0  0  0  0  0  0  0  0
  152.8584  154.6693  144.2007 O   0  0  0  0  0  0  0  0  0  0  0  0
  155.0505  155.2430  144.1313 O   0  0  0  0  0  0  0  0  0  0  0  0
  154.8366  156.6010  143.8112 C   0  0  0  0  0  0  0  0  0  0  0  0
  156.1548  157.3209  144.1135 C   0  0  0  0  0  0  0  0  0  0  0  0
  153.3028  151.9385  144.8429 C   0  0  0  0  0  0  0  0  0  0  0  0
  152.8191  151.8327  143.4187 C   0  0  0  0  0  0  0  0  0  0  0  0
  151.5288  152.1887  143.1110 C   0  0  0  0  0  0  0  0  0  0  0  0
  151.0341  152.1092  141.8115 C   0  0  0  0  0  0  0  0  0  0  0  0
  151.8963  151.6543  140.8297 C   0  0  0  0  0  0  0  0  0  0  0  0
  153.1810  151.3008  141.1419 C   0  0  0  0  0  0  0  0  0  0  0  0
  154.2794  150.7216  139.8930 Cl  0  0  0  0  0  0  0  0  0  0  0  0
  153.6543  151.3843  142.4255 C   0  0  0  0  0  0  0  0  0  0  0  0
  1  2  1  0
  2  3  1  0
  3  4  1  0
  4  5  2  0
  4  6  1  0
  6  7  2  0
  7  8  1  0
  8  9  1  0
  8 10  1  0
 10 11  2  0
 11 12  1  0
 12 13  2  0
 12 14  1  0
 14 15  1  0
 15 16  1  0
 11 17  1  0
 17 18  1  0
 18 19  2  0
 19 20  1  0
 20 21  2  0
 21 22  1  0
 22 23  1  0
 22 24  2  0
 17  6  1  0
 24 18  1  0
M  END
$$$$
