
     RDKit          3D

 24 26  0  0  0  0  0  0  0  0999 V2000
   25.6247   17.0367   28.8274 C   0  0  0  0  0  0  0  0  0  0  0  0
   26.6755   17.9382   28.9784 O   0  0  0  0  0  0  0  0  0  0  0  0
   27.5138   18.3150   27.9516 C   0  0  0  0  0  0  0  0  0  0  0  0
   28.8327   18.4614   28.3955 C   0  0  0  0  0  0  0  0  0  0  0  0
   29.8320   18.8383   27.5047 C   0  0  0  0  0  0  0  0  0  0  0  0
   29.5480   19.0743   26.1753 C   0  0  0  0  0  0  0  0  0  0  0  0
   30.5233   19.4724   25.1667 C   0  0  0  0  0  0  0  0  0  0  0  0
   30.2312   19.5392   23.8205 C   0  0  0  0  0  0  0  0  0  0  0  0
   31.1234   19.9103   22.8362 C   0  0  0  0  0  0  0  0  0  0  0  0
   30.8083   19.9562   21.6159 O   0  0  0  0  0  0  0  0  0  0  0  0
   32.4104   20.2437   23.2058 C   0  0  0  0  0  0  0  0  0  0  0  0
   33.3903   20.6290   22.3221 C   0  0  0  0  0  0  0  0  0  0  0  0
   33.0781   20.6905   20.9710 O   0  0  0  0  0  0  0  0  0  0  0  0
   34.6470   20.9358   22.8490 C   0  0  0  0  0  0  0  0  0  0  0  0
   35.5783   21.3164   21.8811 O   0  0  0  0  0  0  0  0  0  0  0  0
   36.4864   20.4381   21.2682 C   0  0  0  0  0  0  0  0  0  0  0  0
   34.8863   20.8513   24.2149 C   0  0  0  0  0  0  0  0  0  0  0  0
   36.1974   21.1997   24.5141 O   0  0  0  0  0  0  0  0  0  0  0  0
   36.6720   21.1872   25.8473 C   0  0  0  0  0  0  0  0  0  0  0  0
   33.8796   20.4608   25.0754 C   0  0  0  0  0  0  0  0  0  0  0  0
   32.6336   20.1552   24.5656 C   0  0  0  0  0  0  0  0  0  0  0  0
   31.7558   19.7970   25.4730 O   0  0  0  0  0  0  0  0  0  0  0  0
   28.2374   18.9203   25.7739 C   0  0  0  0  0  0  0  0  0  0  0  0
   27.2219   18.5498   26.6215 C   0  0  0  0  0  0  0  0  0  0  0  0
  1  2  1  0
  2  3  1  0
  3  4  2  0
  4  5  1  0
  5  6  2  0
  6  7  1  0
  7  8  2  0
  8  9  1  0
  9 10  2  0
  9 11  1  0
 11 12  2  0
 12 13  1  0
 12 14  1  0
 14 15  1  0
 15 16  1  0
 14 17  2  0
 17 18  1  0
 18 19  1  0
 17 20  1  0
 20 21  2  0
 21 22  1  0
  6 23  1  0
 23 24  2  0
 24  3  1  0
 22  7  1  0
 21 11  1  0
M  END
$$$$
