
     RDKit          3D

 19 20  0  0  0  0  0  0  0  0999 V2000
   37.5392   49.5172   16.8926 C   0  0  0  0  0  0  0  0  0  0  0  0
   37.9956   48.6607   18.0569 C   0  0  0  0  0  0  0  0  0  0  0  0
   39.2351   48.5747   18.4159 N   0  0  0  0  0  0  0  0  0  0  0  0
   39.5949   47.8241   19.4281 C   0  0  0  0  0  0  0  0  0  0  0  0
   40.8779   47.5706   20.0055 N   0  0  0  0  0  0  0  0  0  0  0  0
   41.1038   46.5483   20.9668 C   0  0  0  0  0  0  0  0  0  0  0  0
   40.1065   45.9898   21.4506 O   0  0  0  0  0  0  0  0  0  0  0  0
   42.4012   46.1654   21.3719 N   0  0  0  0  0  0  0  0  0  0  0  0
   42.7126   45.3136   22.4472 C   0  0  0  0  0  0  0  0  0  0  0  0
   42.0832   44.1286   22.7172 C   0  0  0  0  0  0  0  0  0  0  0  0
   42.4801   43.3637   23.8185 C   0  0  0  0  0  0  0  0  0  0  0  0
   43.4946   43.7734   24.6450 C   0  0  0  0  0  0  0  0  0  0  0  0
   44.1505   44.9643   24.4007 C   0  0  0  0  0  0  0  0  0  0  0  0
   45.2601   45.4395   25.2819 C   0  0  0  0  0  0  0  0  0  0  0  0
   43.7435   45.6961   23.3156 C   0  0  0  0  0  0  0  0  0  0  0  0
   44.4437   46.9748   23.0483 C   0  0  0  0  0  0  0  0  0  0  0  0
   38.0737   47.1766   19.9301 S   0  0  0  0  0  0  0  0  0  0  0  0
   37.0717   47.9392   18.7727 C   0  0  0  0  0  0  0  0  0  0  0  0
   35.5941   47.8541   18.5796 C   0  0  0  0  0  0  0  0  0  0  0  0
  1  2  1  0
  2  3  1  0
  3  4  2  0
  4  5  1  0
  5  6  1  0
  6  7  2  0
  6  8  1  0
  8  9  1  0
  9 10  2  0
 10 11  1  0
 11 12  2  0
 12 13  1  0
 13 14  1  0
 13 15  2  0
 15 16  1  0
  4 17  1  0
 17 18  1  0
 18 19  1  0
 18  2  2  0
 15  9  1  0
M  END
$$$$
