
     RDKit          3D

 19 21  0  0  0  0  0  0  0  0999 V2000
   37.7160   38.7953    2.9713 C   0  0  0  0  0  0  0  0  0  0  0  0
   37.5021   39.6640    1.8749 O   0  0  0  0  0  0  0  0  0  0  0  0
   36.3170   39.5892    1.1563 C   0  0  0  0  0  0  0  0  0  0  0  0
   35.2150   38.7853    1.3620 C   0  0  0  0  0  0  0  0  0  0  0  0
   34.1339   38.8839    0.5079 C   0  0  0  0  0  0  0  0  0  0  0  0
   34.1215   39.7699   -0.5549 C   0  0  0  0  0  0  0  0  0  0  0  0
   32.9986   39.7928   -1.3473 C   0  0  0  0  0  0  0  0  0  0  0  0
   31.8776   39.0133   -1.1836 O   0  0  0  0  0  0  0  0  0  0  0  0
   31.8438   37.6077   -1.1772 C   0  0  0  0  0  0  0  0  0  0  0  0
   32.9916   40.6772   -2.4045 C   0  0  0  0  0  0  0  0  0  0  0  0
   32.1356   41.0425   -3.4224 C   0  0  0  0  0  0  0  0  0  0  0  0
   32.7418   42.0242   -4.1776 C   0  0  0  0  0  0  0  0  0  0  0  0
   33.9213   42.2413   -3.6322 O   0  0  0  0  0  0  0  0  0  0  0  0
   34.1009   41.4726   -2.5950 C   0  0  0  0  0  0  0  0  0  0  0  0
   35.1935   41.4397   -1.8114 N   0  0  0  0  0  0  0  0  0  0  0  0
   35.2163   40.5819   -0.7752 C   0  0  0  0  0  0  0  0  0  0  0  0
   36.3129   40.4844    0.0882 C   0  0  0  0  0  0  0  0  0  0  0  0
   37.3697   41.3587   -0.2320 O   0  0  0  0  0  0  0  0  0  0  0  0
   37.8102   41.4885   -1.5710 C   0  0  0  0  0  0  0  0  0  0  0  0
  1  2  1  0
  2  3  1  0
  3  4  2  0
  4  5  1  0
  5  6  2  0
  6  7  1  0
  7  8  1  0
  8  9  1  0
  7 10  2  0
 10 11  1  0
 11 12  2  0
 12 13  1  0
 13 14  1  0
 14 15  2  0
 15 16  1  0
 16 17  2  0
 17 18  1  0
 18 19  1  0
 17  3  1  0
 16  6  1  0
 14 10  1  0
M  END
$$$$
