
     RDKit          3D

 21 22  0  0  0  0  0  0  0  0999 V2000
   16.0964   24.4315   32.9807 C   0  0  0  0  0  0  0  0  0  0  0  0
   15.1279   24.8535   32.1099 O   0  0  0  0  0  0  0  0  0  0  0  0
   14.6309   23.7833   31.2963 C   0  0  1  0  0  0  0  0  0  0  0  0
   13.6652   22.9665   32.1245 C   0  0  0  0  0  0  0  0  0  0  0  0
   13.9055   24.4560   30.1933 C   0  0  0  0  0  0  0  0  0  0  0  0
   14.5859   25.0846   29.0651 C   0  0  0  0  0  0  0  0  0  0  0  0
   15.9845   25.1002   28.9258 N   0  0  0  0  0  0  0  0  0  0  0  0
   16.7610   25.2282   27.7863 C   0  0  0  0  0  0  0  0  0  0  0  0
   16.1484   25.4282   26.6920 O   0  0  0  0  0  0  0  0  0  0  0  0
   18.2105   25.1649   27.6617 C   0  0  0  0  0  0  0  0  0  0  0  0
   18.8225   25.4913   26.4397 C   0  0  0  0  0  0  0  0  0  0  0  0
   20.1575   25.4478   26.2824 N   0  0  0  0  0  0  0  0  0  0  0  0
   20.9855   25.0906   27.2811 C   0  0  0  0  0  0  0  0  0  0  0  0
   22.3650   25.0427   27.1283 C   0  0  0  0  0  0  0  0  0  0  0  0
   23.1939   24.6680   28.1845 C   0  0  0  0  0  0  0  0  0  0  0  0
   22.6634   24.3323   29.4180 C   0  0  0  0  0  0  0  0  0  0  0  0
   23.5251   23.9263   30.5693 C   0  0  0  0  0  0  0  0  0  0  0  0
   21.2892   24.3902   29.5365 C   0  0  0  0  0  0  0  0  0  0  0  0
   20.4589   24.7568   28.5078 C   0  0  0  0  0  0  0  0  0  0  0  0
   19.0706   24.8079   28.6520 C   0  0  0  0  0  0  0  0  0  0  0  0
   18.6503   24.4959   29.7825 O   0  0  0  0  0  0  0  0  0  0  0  0
  1  2  1  0
  2  3  1  0
  3  4  1  1
  3  5  1  0
  5  6  1  0
  6  7  1  0
  7  8  1  0
  8  9  2  0
  8 10  1  0
 10 11  2  0
 11 12  1  0
 12 13  1  0
 13 14  2  0
 14 15  1  0
 15 16  2  0
 16 17  1  0
 16 18  1  0
 18 19  2  0
 19 20  1  0
 20 21  2  0
 20 10  1  0
 19 13  1  0
M  END
$$$$
