
     RDKit          3D

 21 22  0  0  0  0  0  0  0  0999 V2000
   36.4115   32.4733    5.5780 C   0  0  0  0  0  0  0  0  0  0  0  0
   35.9234   31.1992    5.4643 O   0  0  0  0  0  0  0  0  0  0  0  0
   34.4968   31.1546    5.5946 C   0  0  1  0  0  0  0  0  0  0  0  0
   33.8938   31.1428    4.2083 C   0  0  0  0  0  0  0  0  0  0  0  0
   34.2221   29.8674    6.2750 C   0  0  0  0  0  0  0  0  0  0  0  0
   33.9796   29.7664    7.7110 C   0  0  0  0  0  0  0  0  0  0  0  0
   34.6923   30.5157    8.6630 N   0  0  0  0  0  0  0  0  0  0  0  0
   34.3319   30.8924    9.9459 C   0  0  0  0  0  0  0  0  0  0  0  0
   33.8487   29.9890   10.6965 O   0  0  0  0  0  0  0  0  0  0  0  0
   34.4304   32.2043   10.5702 C   0  0  0  0  0  0  0  0  0  0  0  0
   34.2207   32.3385   11.9531 C   0  0  0  0  0  0  0  0  0  0  0  0
   34.3038   33.5311   12.5694 N   0  0  0  0  0  0  0  0  0  0  0  0
   34.5918   34.6639   11.9027 C   0  0  0  0  0  0  0  0  0  0  0  0
   34.6799   35.8996   12.5304 C   0  0  0  0  0  0  0  0  0  0  0  0
   34.9801   37.0538   11.8088 C   0  0  0  0  0  0  0  0  0  0  0  0
   35.1992   37.0000   10.4433 C   0  0  0  0  0  0  0  0  0  0  0  0
   35.5225   38.2192    9.6421 C   0  0  0  0  0  0  0  0  0  0  0  0
   35.1043   35.7569    9.8504 C   0  0  0  0  0  0  0  0  0  0  0  0
   34.8099   34.6111   10.5451 C   0  0  0  0  0  0  0  0  0  0  0  0
   34.7192   33.3641    9.9227 C   0  0  0  0  0  0  0  0  0  0  0  0
   34.9259   33.3764    8.6942 O   0  0  0  0  0  0  0  0  0  0  0  0
  1  2  1  0
  2  3  1  0
  3  4  1  6
  3  5  1  0
  5  6  1  0
  6  7  1  0
  7  8  1  0
  8  9  2  0
  8 10  1  0
 10 11  2  0
 11 12  1  0
 12 13  1  0
 13 14  2  0
 14 15  1  0
 15 16  2  0
 16 17  1  0
 16 18  1  0
 18 19  2  0
 19 20  1  0
 20 21  2  0
 20 10  1  0
 19 13  1  0
M  END
$$$$
