
     RDKit          3D

 25 26  0  0  0  0  0  0  0  0999 V2000
  157.1192  154.4372  150.1714 C   0  0  0  0  0  0  0  0  0  0  0  0
  156.5107  154.1134  148.8263 C   0  0  0  0  0  0  0  0  0  0  0  0
  155.6238  153.0403  148.8444 O   0  0  0  0  0  0  0  0  0  0  0  0
  154.9444  152.6771  147.6808 C   0  0  0  0  0  0  0  0  0  0  0  0
  155.6627  151.9990  146.7186 C   0  0  0  0  0  0  0  0  0  0  0  0
  157.0042  151.6725  146.8647 O   0  0  0  0  0  0  0  0  0  0  0  0
  157.6674  151.0806  145.7631 C   0  0  0  0  0  0  0  0  0  0  0  0
  154.9535  151.6478  145.5593 C   0  0  0  0  0  0  0  0  0  0  0  0
  153.6305  151.9688  145.4145 C   0  0  0  0  0  0  0  0  0  0  0  0
  152.9033  151.5877  144.1801 C   0  0  0  0  0  0  0  0  0  0  0  0
  153.0436  150.1881  144.0045 N   0  0  0  0  0  0  0  0  0  0  0  0
  152.3804  149.5738  142.9203 C   0  0  0  0  0  0  0  0  0  0  0  0
  152.6584  148.1034  142.7512 C   0  0  0  0  0  0  0  0  0  0  0  0
  153.9972  147.8849  142.5650 O   0  0  0  0  0  0  0  0  0  0  0  0
  151.8313  147.6291  141.6110 C   0  0  0  0  0  0  0  0  0  0  0  0
  151.7722  146.2677  141.4048 C   0  0  0  0  0  0  0  0  0  0  0  0
  151.0215  145.7730  140.3643 C   0  0  0  0  0  0  0  0  0  0  0  0
  150.3319  146.6242  139.5312 C   0  0  0  0  0  0  0  0  0  0  0  0
  149.3915  145.9455  138.2225 Cl  0  0  0  0  0  0  0  0  0  0  0  0
  150.4149  147.9778  139.7684 C   0  0  0  0  0  0  0  0  0  0  0  0
  151.1581  148.5167  140.8029 C   0  0  0  0  0  0  0  0  0  0  0  0
  152.9484  152.6452  146.3960 C   0  0  0  0  0  0  0  0  0  0  0  0
  153.6069  153.0139  147.5602 C   0  0  0  0  0  0  0  0  0  0  0  0
  152.9657  153.6999  148.5860 O   0  0  0  0  0  0  0  0  0  0  0  0
  151.6898  154.2387  148.3214 C   0  0  0  0  0  0  0  0  0  0  0  0
  1  2  1  0
  2  3  1  0
  3  4  1  0
  4  5  2  0
  5  6  1  0
  6  7  1  0
  5  8  1  0
  8  9  2  0
  9 10  1  0
 10 11  1  0
 11 12  1  0
 12 13  1  0
 13 14  1  0
 13 15  1  0
 15 16  2  0
 16 17  1  0
 17 18  2  0
 18 19  1  0
 18 20  1  0
 20 21  2  0
  9 22  1  0
 22 23  2  0
 23 24  1  0
 24 25  1  0
 23  4  1  0
 21 15  1  0
M  END
$$$$
