
     RDKit          3D

 22 23  0  0  0  0  0  0  0  0999 V2000
   -1.4544   -1.0144  -60.0185 C   0  0  0  0  0  0  0  0  0  0  0  0
   -0.3759   -1.7189  -59.4319 O   0  0  0  0  0  0  0  0  0  0  0  0
   -0.6331   -2.9548  -58.8693 C   0  0  0  0  0  0  0  0  0  0  0  0
   -1.7466   -3.6818  -59.2073 C   0  0  0  0  0  0  0  0  0  0  0  0
   -2.0067   -4.9187  -58.6440 C   0  0  0  0  0  0  0  0  0  0  0  0
   -1.1188   -5.4384  -57.7135 C   0  0  0  0  0  0  0  0  0  0  0  0
   -1.4436   -6.7772  -57.1474 C   0  0  0  0  0  0  0  0  0  0  0  0
   -0.2633   -7.5936  -57.1365 N   0  0  0  0  0  0  0  0  0  0  0  0
    0.1307   -8.0744  -58.4293 C   0  0  0  0  0  0  0  0  0  0  0  0
   -1.0528   -8.6226  -59.1768 C   0  0  1  0  0  0  0  0  0  0  0  0
   -2.2095   -8.0965  -58.6484 O   0  0  0  0  0  0  0  0  0  0  0  0
   -0.9109   -8.1922  -60.6139 C   0  0  0  0  0  0  0  0  0  0  0  0
   -0.7535   -9.1523  -61.5844 C   0  0  0  0  0  0  0  0  0  0  0  0
   -0.6184   -8.7841  -62.9346 C   0  0  0  0  0  0  0  0  0  0  0  0
   -0.6479   -7.4354  -63.2653 C   0  0  0  0  0  0  0  0  0  0  0  0
   -0.8062   -6.4898  -62.2770 C   0  0  0  0  0  0  0  0  0  0  0  0
   -0.8411   -4.7963  -62.7011 Cl  0  0  0  0  0  0  0  0  0  0  0  0
   -0.9386   -6.8631  -60.9369 C   0  0  0  0  0  0  0  0  0  0  0  0
   -0.0057   -4.7132  -57.3756 C   0  0  0  0  0  0  0  0  0  0  0  0
    1.2632   -5.3839  -56.1228 Br  0  0  0  0  0  0  0  0  0  0  0  0
    0.2491   -3.4655  -57.9484 C   0  0  0  0  0  0  0  0  0  0  0  0
    1.3963   -2.7997  -57.5477 O   0  0  0  0  0  0  0  0  0  0  0  0
  1  2  1  0
  2  3  1  0
  3  4  2  0
  4  5  1  0
  5  6  2  0
  6  7  1  0
  7  8  1  0
  8  9  1  0
  9 10  1  0
 10 11  1  1
 10 12  1  0
 12 13  2  0
 13 14  1  0
 14 15  2  0
 15 16  1  0
 16 17  1  0
 16 18  2  0
  6 19  1  0
 19 20  1  0
 19 21  2  0
 21 22  1  0
 21  3  1  0
 18 12  1  0
M  END
$$$$
