
     RDKit          3D

 17 18  0  0  0  0  0  0  0  0999 V2000
   41.3544   43.1738   25.2683 C   0  0  0  0  0  0  0  0  0  0  0  0
   42.3103   42.4656   24.6672 C   0  0  0  0  0  0  0  0  0  0  0  0
   42.8669   42.9853   22.9236 Br  0  0  0  0  0  0  0  0  0  0  0  0
   42.9562   41.2975   25.2919 C   0  0  0  0  0  0  0  0  0  0  0  0
   42.1444   40.7027   26.3355 N   0  0  0  0  0  0  0  0  0  0  0  0
   42.4161   41.4199   27.5651 C   0  0  0  0  0  0  0  0  0  0  0  0
   43.4437   40.7252   28.3877 C   0  0  0  0  0  0  0  0  0  0  0  0
   44.3624   39.8650   27.7797 C   0  0  0  0  0  0  0  0  0  0  0  0
   45.3169   39.2184   28.5366 C   0  0  0  0  0  0  0  0  0  0  0  0
   45.3758   39.4129   29.9007 C   0  0  0  0  0  0  0  0  0  0  0  0
   44.4842   40.2550   30.5318 C   0  0  0  0  0  0  0  0  0  0  0  0
   44.5743   40.4260   31.9066 O   0  0  0  0  0  0  0  0  0  0  0  0
   43.7183   41.2265   32.6563 C   0  0  0  0  0  0  0  0  0  0  0  0
   43.5450   40.8837   29.7442 C   0  0  0  0  0  0  0  0  0  0  0  0
   46.4262   38.6363   30.3681 O   0  0  0  0  0  0  0  0  0  0  0  0
   46.6859   37.6380   29.3992 C   0  0  0  0  0  0  0  0  0  0  0  0
   46.3279   38.3299   28.1936 O   0  0  0  0  0  0  0  0  0  0  0  0
  1  2  2  0
  2  3  1  0
  2  4  1  0
  4  5  1  0
  5  6  1  0
  6  7  1  0
  7  8  2  0
  8  9  1  0
  9 10  2  0
 10 11  1  0
 11 12  1  0
 12 13  1  0
 11 14  2  0
 10 15  1  0
 15 16  1  0
 16 17  1  0
 14  7  1  0
 17  9  1  0
M  END
$$$$
