
     RDKit          3D

 17 18  0  0  0  0  0  0  0  0999 V2000
   -0.3292   49.5982   16.6493 C   0  0  0  0  0  0  0  0  0  0  0  0
   -0.9276   50.3031   17.8460 C   0  0  0  0  0  0  0  0  0  0  0  0
   -2.3022   50.8565   17.7453 C   0  0  0  0  0  0  0  0  0  0  0  0
   -0.4410   50.5557   19.0810 C   0  0  0  0  0  0  0  0  0  0  0  0
    0.7822   50.0653   19.7456 C   0  0  0  0  0  0  0  0  0  0  0  0
    0.9433   50.5709   21.0250 O   0  0  0  0  0  0  0  0  0  0  0  0
    1.8890   50.3125   21.9620 C   0  0  0  0  0  0  0  0  0  0  0  0
    2.2942   50.9563   23.0861 C   0  0  0  0  0  0  0  0  0  0  0  0
    3.3000   50.4915   23.9029 C   0  0  0  0  0  0  0  0  0  0  0  0
    3.9492   49.3169   23.5928 C   0  0  0  0  0  0  0  0  0  0  0  0
    4.9498   48.9305   24.4778 C   0  0  0  0  0  0  0  0  0  0  0  0
    5.6093   47.7566   24.1811 C   0  0  0  0  0  0  0  0  0  0  0  0
    5.1800   47.1211   23.0343 C   0  0  0  0  0  0  0  0  0  0  0  0
    5.7301   46.0254   22.6754 O   0  0  0  0  0  0  0  0  0  0  0  0
    4.2297   47.5157   22.2202 O   0  0  0  0  0  0  0  0  0  0  0  0
    3.5811   48.6200   22.4639 C   0  0  0  0  0  0  0  0  0  0  0  0
    2.5548   49.1201   21.6556 C   0  0  0  0  0  0  0  0  0  0  0  0
  1  2  1  0
  2  3  1  0
  2  4  2  3
  4  5  1  0
  5  6  1  0
  6  7  1  0
  7  8  2  0
  8  9  1  0
  9 10  2  0
 10 11  1  0
 11 12  2  0
 12 13  1  0
 13 14  2  0
 13 15  1  0
 15 16  1  0
 16 17  2  0
 17  7  1  0
 16 10  1  0
M  END
$$$$
