
     RDKit          3D

 24 25  0  0  0  0  0  0  0  0999 V2000
  151.0724  149.9880  141.1188 C   0  0  0  0  0  0  0  0  0  0  0  0
  152.0457  148.9877  141.6443 C   0  0  0  0  0  0  0  0  0  0  0  0
  152.2146  149.1013  143.1722 C   0  0  0  0  0  0  0  0  0  0  0  0
  153.1343  148.1327  143.5505 O   0  0  0  0  0  0  0  0  0  0  0  0
  150.9164  148.8504  143.8551 C   0  0  0  0  0  0  0  0  0  0  0  0
  150.9949  148.0645  145.1333 C   0  0  0  0  0  0  0  0  0  0  0  0
  152.6892  150.5134  143.3940 C   0  0  0  0  0  0  0  0  0  0  0  0
  153.5320  150.6885  144.4975 N   0  0  0  0  0  0  0  0  0  0  0  0
  154.0019  151.9723  144.8432 C   0  0  0  0  0  0  0  0  0  0  0  0
  155.3473  151.8357  145.4441 C   0  0  0  0  0  0  0  0  0  0  0  0
  155.8263  150.5786  145.7132 C   0  0  0  0  0  0  0  0  0  0  0  0
  157.0652  150.3573  146.2731 C   0  0  0  0  0  0  0  0  0  0  0  0
  157.8492  151.4360  146.5733 C   0  0  0  0  0  0  0  0  0  0  0  0
  159.0797  151.2539  147.1281 F   0  0  0  0  0  0  0  0  0  0  0  0
  157.3706  152.7188  146.3038 C   0  0  0  0  0  0  0  0  0  0  0  0
  156.1399  152.9274  145.7475 C   0  0  0  0  0  0  0  0  0  0  0  0
  153.1290  152.7411  145.7773 C   0  0  0  0  0  0  0  0  0  0  0  0
  152.3606  152.0557  146.6868 C   0  0  0  0  0  0  0  0  0  0  0  0
  151.5629  152.7679  147.5495 C   0  0  0  0  0  0  0  0  0  0  0  0
  151.5021  154.1459  147.5400 C   0  0  0  0  0  0  0  0  0  0  0  0
  150.6994  154.8690  148.4071 O   0  0  0  0  0  0  0  0  0  0  0  0
  150.7307  156.2895  148.2908 C   0  0  0  0  0  0  0  0  0  0  0  0
  152.2685  154.8386  146.6329 C   0  0  0  0  0  0  0  0  0  0  0  0
  153.0695  154.1129  145.7669 C   0  0  0  0  0  0  0  0  0  0  0  0
  1  2  1  0
  2  3  1  0
  3  4  1  0
  3  5  1  0
  5  6  1  0
  3  7  1  0
  7  8  1  0
  8  9  1  0
  9 10  1  0
 10 11  2  0
 11 12  1  0
 12 13  2  0
 13 14  1  0
 13 15  1  0
 15 16  2  0
  9 17  1  0
 17 18  2  0
 18 19  1  0
 19 20  2  0
 20 21  1  0
 21 22  1  0
 20 23  1  0
 23 24  2  0
 16 10  1  0
 24 17  1  0
M  END
$$$$
