
     RDKit          3D

 24 25  0  0  0  0  0  0  0  0999 V2000
  151.7603  161.4121  157.5227 C   0  0  0  0  0  0  0  0  0  0  0  0
  151.3617  160.3766  156.5262 C   0  0  0  0  0  0  0  0  0  0  0  0
  151.2390  158.9810  157.1689 C   0  0  0  0  0  0  0  0  0  0  0  0
  150.3865  159.1101  158.2567 O   0  0  0  0  0  0  0  0  0  0  0  0
  152.5715  158.5074  157.6328 C   0  0  0  0  0  0  0  0  0  0  0  0
  152.5529  157.5177  158.7630 C   0  0  0  0  0  0  0  0  0  0  0  0
  150.6968  158.1069  156.0688 C   0  0  0  0  0  0  0  0  0  0  0  0
  150.1521  156.8896  156.4936 N   0  0  0  0  0  0  0  0  0  0  0  0
  149.4639  156.0576  155.5867 C   0  0  0  0  0  0  0  0  0  0  0  0
  148.8712  154.9293  156.3388 C   0  0  0  0  0  0  0  0  0  0  0  0
  147.8689  154.1985  155.7527 C   0  0  0  0  0  0  0  0  0  0  0  0
  147.2588  153.1342  156.3790 C   0  0  0  0  0  0  0  0  0  0  0  0
  147.6697  152.7928  157.6372 C   0  0  0  0  0  0  0  0  0  0  0  0
  147.0882  151.7460  158.2862 F   0  0  0  0  0  0  0  0  0  0  0  0
  148.6883  153.5304  158.2419 C   0  0  0  0  0  0  0  0  0  0  0  0
  149.2874  154.5845  157.6115 C   0  0  0  0  0  0  0  0  0  0  0  0
  150.2874  155.5153  154.4672 C   0  0  0  0  0  0  0  0  0  0  0  0
  150.0557  155.9670  153.1907 C   0  0  0  0  0  0  0  0  0  0  0  0
  150.8208  155.4698  152.1634 C   0  0  0  0  0  0  0  0  0  0  0  0
  151.8142  154.5336  152.3619 C   0  0  0  0  0  0  0  0  0  0  0  0
  152.5882  154.0285  151.3300 O   0  0  0  0  0  0  0  0  0  0  0  0
  152.3390  154.5360  150.0213 C   0  0  0  0  0  0  0  0  0  0  0  0
  152.0519  154.0771  153.6367 C   0  0  0  0  0  0  0  0  0  0  0  0
  151.2761  154.5834  154.6662 C   0  0  0  0  0  0  0  0  0  0  0  0
  1  2  1  0
  2  3  1  0
  3  4  1  0
  3  5  1  0
  5  6  1  0
  3  7  1  0
  7  8  1  0
  8  9  1  0
  9 10  1  0
 10 11  2  0
 11 12  1  0
 12 13  2  0
 13 14  1  0
 13 15  1  0
 15 16  2  0
  9 17  1  0
 17 18  2  0
 18 19  1  0
 19 20  2  0
 20 21  1  0
 21 22  1  0
 20 23  1  0
 23 24  2  0
 16 10  1  0
 24 17  1  0
M  END
$$$$
