
     RDKit          3D

 12 12  0  0  0  0  0  0  0  0999 V2000
   48.7570   57.2142    8.7814 C   0  0  0  0  0  0  0  0  0  0  0  0
   49.0729   58.4265    8.1799 O   0  0  0  0  0  0  0  0  0  0  0  0
   48.7019   59.6677    8.6502 C   0  0  0  0  0  0  0  0  0  0  0  0
   47.5719   59.7250    9.4427 C   0  0  0  0  0  0  0  0  0  0  0  0
   47.1201   60.9289    9.9627 C   0  0  0  0  0  0  0  0  0  0  0  0
   45.9872   61.0098   10.7614 O   0  0  0  0  0  0  0  0  0  0  0  0
   47.8318   62.0668    9.6654 C   0  0  0  0  0  0  0  0  0  0  0  0
   47.3896   63.2825   10.1807 O   0  0  0  0  0  0  0  0  0  0  0  0
   48.1603   64.4651    9.9358 C   0  0  0  0  0  0  0  0  0  0  0  0
   48.9682   62.0204    8.8703 C   0  0  0  0  0  0  0  0  0  0  0  0
   49.4087   60.8157    8.3581 C   0  0  0  0  0  0  0  0  0  0  0  0
   50.5443   60.7289    7.5565 O   0  0  0  0  0  0  0  0  0  0  0  0
  1  2  1  0
  2  3  1  0
  3  4  2  0
  4  5  1  0
  5  6  1  0
  5  7  2  0
  7  8  1  0
  8  9  1  0
  7 10  1  0
 10 11  2  0
 11 12  1  0
 11  3  1  0
M  END
$$$$
