
     RDKit          3D

 12 12  0  0  0  0  0  0  0  0999 V2000
   41.7007   34.1435   27.4080 C   0  0  0  0  0  0  0  0  0  0  0  0
   42.7917   35.0042   27.4031 O   0  0  0  0  0  0  0  0  0  0  0  0
   44.0955   34.6363   27.6564 C   0  0  0  0  0  0  0  0  0  0  0  0
   44.7738   33.9938   26.6389 C   0  0  0  0  0  0  0  0  0  0  0  0
   46.0895   33.5852   26.7994 C   0  0  0  0  0  0  0  0  0  0  0  0
   46.7904   32.9380   25.7905 O   0  0  0  0  0  0  0  0  0  0  0  0
   46.7007   33.8391   28.0043 C   0  0  0  0  0  0  0  0  0  0  0  0
   48.0215   33.4345   28.1793 O   0  0  0  0  0  0  0  0  0  0  0  0
   48.5484   33.3302   29.5075 C   0  0  0  0  0  0  0  0  0  0  0  0
   46.0285   34.4838   29.0330 C   0  0  0  0  0  0  0  0  0  0  0  0
   44.7184   34.8861   28.8616 C   0  0  0  0  0  0  0  0  0  0  0  0
   44.0108   35.5357   29.8702 O   0  0  0  0  0  0  0  0  0  0  0  0
  1  2  1  0
  2  3  1  0
  3  4  2  0
  4  5  1  0
  5  6  1  0
  5  7  2  0
  7  8  1  0
  8  9  1  0
  7 10  1  0
 10 11  2  0
 11 12  1  0
 11  3  1  0
M  END
$$$$
