
     RDKit          3D

  8  8  0  0  0  0  0  0  0  0999 V2000
   11.0116    8.8997    4.9165 C   0  0  0  0  0  0  0  0  0  0  0  0
   11.9525    7.7521    4.9368 C   0  0  0  0  0  0  0  0  0  0  0  0
   11.6651    6.6099    4.2228 C   0  0  0  0  0  0  0  0  0  0  0  0
   12.5683    5.5502    4.2621 C   0  0  0  0  0  0  0  0  0  0  0  0
   13.7220    5.6741    5.0129 C   0  0  0  0  0  0  0  0  0  0  0  0
   14.0339    6.8081    5.7377 C   0  0  0  0  0  0  0  0  0  0  0  0
   13.1067    7.8554    5.6781 C   0  0  0  0  0  0  0  0  0  0  0  0
   13.3490    9.0601    6.3948 N   0  0  0  0  0  0  0  0  0  0  0  0
  1  2  1  0
  2  3  2  0
  3  4  1  0
  4  5  2  0
  5  6  1  0
  6  7  2  0
  7  8  1  0
  7  2  1  0
M  END
$$$$
