
     RDKit          3D

  8  8  0  0  0  0  0  0  0  0999 V2000
   24.6356   25.8516    6.8104 C   0  0  0  0  0  0  0  0  0  0  0  0
   24.8818   24.6795    5.9338 C   0  0  0  0  0  0  0  0  0  0  0  0
   24.7949   24.8095    4.5654 C   0  0  0  0  0  0  0  0  0  0  0  0
   25.0315   23.6909    3.7698 C   0  0  0  0  0  0  0  0  0  0  0  0
   25.3454   22.4877    4.3731 C   0  0  0  0  0  0  0  0  0  0  0  0
   25.4388   22.3305    5.7425 C   0  0  0  0  0  0  0  0  0  0  0  0
   25.1956   23.4727    6.5148 C   0  0  0  0  0  0  0  0  0  0  0  0
   25.2707   23.4000    7.9334 N   0  0  0  0  0  0  0  0  0  0  0  0
  1  2  1  0
  2  3  2  0
  3  4  1  0
  4  5  2  0
  5  6  1  0
  6  7  2  0
  7  8  1  0
  7  2  1  0
M  END
$$$$
