
     RDKit          3D

 22 23  0  0  0  0  0  0  0  0999 V2000
  170.7651  149.0141  162.5213 C   0  0  0  0  0  0  0  0  0  0  0  0
  171.5175  147.6735  162.6438 C   0  0  0  0  0  0  0  0  0  0  0  0
  171.2203  146.8065  161.4733 C   0  0  0  0  0  0  0  0  0  0  0  0
  170.3645  145.6063  161.7316 C   0  0  0  0  0  0  0  0  0  0  0  0
  170.1191  144.8745  160.5433 N   0  0  2  0  0  4  0  0  0  0  0  0
  169.0779  145.6052  159.7996 C   0  0  0  0  0  0  0  0  0  0  0  0
  169.7269  143.4934  160.7393 C   0  0  0  0  0  0  0  0  0  0  0  0
  169.5836  142.6969  159.5307 C   0  0  0  0  0  0  0  0  0  0  0  0
  170.6494  142.1127  158.8980 C   0  0  0  0  0  0  0  0  0  0  0  0
  172.0200  142.2237  159.4373 C   0  0  0  0  0  0  0  0  0  0  0  0
  170.4920  141.3839  157.7523 N   0  0  0  0  0  0  0  0  0  0  0  0
  169.2976  141.1905  157.1742 C   0  0  0  0  0  0  0  0  0  0  0  0
  169.1834  140.4383  156.0046 C   0  0  0  0  0  0  0  0  0  0  0  0
  167.9221  140.2817  155.4678 C   0  0  0  0  0  0  0  0  0  0  0  0
  166.7760  140.8197  156.0145 C   0  0  0  0  0  0  0  0  0  0  0  0
  165.5045  140.6693  155.4884 O   0  0  0  0  0  0  0  0  0  0  0  0
  164.3897  140.4766  156.3202 C   0  0  0  0  0  0  0  0  0  0  0  0
  163.4274  139.4330  155.8635 C   0  0  0  0  0  0  0  0  0  0  0  0
  166.9676  141.5614  157.1858 C   0  0  0  0  0  0  0  0  0  0  0  0
  168.1942  141.7564  157.7718 C   0  0  0  0  0  0  0  0  0  0  0  0
  168.3328  142.4981  158.9315 C   0  0  0  0  0  0  0  0  0  0  0  0
  167.3217  143.0217  159.4869 O   0  0  0  0  0  0  0  0  0  0  0  0
  1  2  1  0
  2  3  1  0
  3  4  1  0
  4  5  1  0
  5  6  1  1
  5  7  1  0
  7  8  1  0
  8  9  2  0
  9 10  1  0
  9 11  1  0
 11 12  1  0
 12 13  2  0
 13 14  1  0
 14 15  2  0
 15 16  1  0
 16 17  1  0
 17 18  1  0
 15 19  1  0
 19 20  2  0
 20 21  1  0
 21 22  2  0
 21  8  1  0
 20 12  1  0
M  CHG  1   5   1
M  END
$$$$
