
     RDKit          3D

 25 27  0  0  0  0  0  0  0  0999 V2000
   10.5125   27.4451   -6.5219 C   0  0  0  0  0  0  0  0  0  0  0  0
   10.7605   29.1430   -6.0430 S   0  0  0  0  0  6  0  0  0  0  0  0
   10.5444   30.0289   -7.2261 O   0  0  0  0  0  0  0  0  0  0  0  0
   12.1977   29.2795   -5.6311 O   0  0  0  0  0  0  0  0  0  0  0  0
    9.7364   29.5457   -4.6999 C   0  0  0  0  0  0  0  0  0  0  0  0
   10.1760   29.2783   -3.4176 C   0  0  0  0  0  0  0  0  0  0  0  0
    9.4193   29.5700   -2.3109 C   0  0  0  0  0  0  0  0  0  0  0  0
    8.1809   30.1481   -2.4780 C   0  0  0  0  0  0  0  0  0  0  0  0
    7.6959   30.4346   -3.7272 C   0  0  0  0  0  0  0  0  0  0  0  0
    6.3813   31.0507   -3.9540 C   0  0  0  0  0  0  0  0  0  0  0  0
    5.7150   31.5163   -2.9751 O   0  0  0  0  0  0  0  0  0  0  0  0
    5.7907   31.1634   -5.2271 N   0  0  0  0  0  0  0  0  0  0  0  0
    4.3726   30.9689   -5.4283 C   0  0  0  0  0  0  0  0  0  0  0  0
    3.7712   29.9887   -6.0622 N   0  0  0  0  0  0  0  0  0  0  0  0
    2.4766   29.9660   -6.1513 C   0  0  0  0  0  0  0  0  0  0  0  0
    1.7675   28.8707   -6.8618 C   0  0  0  0  0  0  0  0  0  0  0  0
    0.6743   29.1134   -7.6665 C   0  0  0  0  0  0  0  0  0  0  0  0
    0.0115   28.1297   -8.3246 C   0  0  0  0  0  0  0  0  0  0  0  0
    0.4583   26.8161   -8.1786 C   0  0  0  0  0  0  0  0  0  0  0  0
   -0.2030   25.8113   -8.8388 O   0  0  0  0  0  0  0  0  0  0  0  0
    1.5414   26.5230   -7.3893 C   0  0  0  0  0  0  0  0  0  0  0  0
    2.1777   27.5618   -6.7433 C   0  0  0  0  0  0  0  0  0  0  0  0
    1.7850   30.9922   -5.5644 C   0  0  0  0  0  0  0  0  0  0  0  0
    3.0736   31.9356   -4.9131 S   0  0  0  0  0  0  0  0  0  0  0  0
    8.5034   30.1189   -4.8214 C   0  0  0  0  0  0  0  0  0  0  0  0
  1  2  1  0
  2  3  2  0
  2  4  2  0
  2  5  1  0
  5  6  2  0
  6  7  1  0
  7  8  2  0
  8  9  1  0
  9 10  1  0
 10 11  2  0
 10 12  1  0
 12 13  1  0
 13 14  2  0
 14 15  1  0
 15 16  1  0
 16 17  2  0
 17 18  1  0
 18 19  2  0
 19 20  1  0
 19 21  1  0
 21 22  2  0
 15 23  2  0
 23 24  1  0
  9 25  2  0
 25  5  1  0
 24 13  1  0
 22 16  1  0
M  END
$$$$
