
     RDKit          3D

 25 27  0  0  0  0  0  0  0  0999 V2000
   -8.6947   -8.6300  -59.0117 C   0  0  0  0  0  0  0  0  0  0  0  0
   -8.3016  -10.2932  -59.5145 S   0  0  0  0  0  6  0  0  0  0  0  0
   -9.5426  -10.9737  -59.9921 O   0  0  0  0  0  0  0  0  0  0  0  0
   -7.8267  -11.0230  -58.2914 O   0  0  0  0  0  0  0  0  0  0  0  0
   -7.0365  -10.2799  -60.7037 C   0  0  0  0  0  0  0  0  0  0  0  0
   -7.1097  -11.1547  -61.7707 C   0  0  0  0  0  0  0  0  0  0  0  0
   -6.1461  -11.1981  -62.7463 C   0  0  0  0  0  0  0  0  0  0  0  0
   -5.0689  -10.3445  -62.6643 C   0  0  0  0  0  0  0  0  0  0  0  0
   -4.9463   -9.4567  -61.6276 C   0  0  0  0  0  0  0  0  0  0  0  0
   -3.8154   -8.5275  -61.4986 C   0  0  0  0  0  0  0  0  0  0  0  0
   -3.3689   -7.9165  -62.5215 O   0  0  0  0  0  0  0  0  0  0  0  0
   -3.1716   -8.2598  -60.2754 N   0  0  0  0  0  0  0  0  0  0  0  0
   -2.2169   -7.1835  -60.1372 C   0  0  0  0  0  0  0  0  0  0  0  0
   -1.5425   -6.8309  -59.0669 N   0  0  0  0  0  0  0  0  0  0  0  0
   -0.7174   -5.8304  -59.1153 C   0  0  0  0  0  0  0  0  0  0  0  0
    0.0595   -5.4078  -57.9214 C   0  0  0  0  0  0  0  0  0  0  0  0
   -0.0568   -6.0572  -56.7105 C   0  0  0  0  0  0  0  0  0  0  0  0
    0.6421   -5.6893  -55.6076 C   0  0  0  0  0  0  0  0  0  0  0  0
    1.5158   -4.6061  -55.7067 C   0  0  0  0  0  0  0  0  0  0  0  0
    2.2290   -4.2233  -54.5987 O   0  0  0  0  0  0  0  0  0  0  0  0
    1.6668   -3.9273  -56.8892 C   0  0  0  0  0  0  0  0  0  0  0  0
    0.9316   -4.3441  -57.9787 C   0  0  0  0  0  0  0  0  0  0  0  0
   -0.5882   -5.1754  -60.3112 C   0  0  0  0  0  0  0  0  0  0  0  0
   -1.6858   -6.0647  -61.3007 S   0  0  0  0  0  0  0  0  0  0  0  0
   -5.9527   -9.4509  -60.6601 C   0  0  0  0  0  0  0  0  0  0  0  0
  1  2  1  0
  2  3  2  0
  2  4  2  0
  2  5  1  0
  5  6  2  0
  6  7  1  0
  7  8  2  0
  8  9  1  0
  9 10  1  0
 10 11  2  0
 10 12  1  0
 12 13  1  0
 13 14  2  0
 14 15  1  0
 15 16  1  0
 16 17  2  0
 17 18  1  0
 18 19  2  0
 19 20  1  0
 19 21  1  0
 21 22  2  0
 15 23  2  0
 23 24  1  0
  9 25  2  0
 25  5  1  0
 24 13  1  0
 22 16  1  0
M  END
$$$$
