
     RDKit          3D

 21 22  0  0  0  0  0  0  0  0999 V2000
    0.7607   -5.5585  -52.5446 C   0  0  0  0  0  0  0  0  0  0  0  0
    0.0614   -6.2665  -53.5315 O   0  0  0  0  0  0  0  0  0  0  0  0
    0.1521   -5.9856  -54.8830 C   0  0  0  0  0  0  0  0  0  0  0  0
   -0.6829   -6.6100  -55.7633 C   0  0  0  0  0  0  0  0  0  0  0  0
   -0.5747   -6.3157  -57.1034 C   0  0  0  0  0  0  0  0  0  0  0  0
    0.3692   -5.3941  -57.5755 C   0  0  0  0  0  0  0  0  0  0  0  0
    0.4443   -5.1288  -58.9273 C   0  0  0  0  0  0  0  0  0  0  0  0
   -0.4738   -5.8354  -59.8339 C   0  0  0  0  0  0  0  0  0  0  0  0
   -1.8727   -4.7879  -60.3457 S   0  0  0  0  0  0  0  0  0  0  0  0
   -3.3267   -5.9002  -60.4914 C   0  0  0  0  0  0  0  0  0  0  0  0
   -3.2598   -6.7354  -61.7074 C   0  0  0  0  0  0  0  0  0  0  0  0
   -2.1790   -7.7568  -61.6762 C   0  0  0  0  0  0  0  0  0  0  0  0
   -2.0115   -8.6585  -62.8403 C   0  0  0  0  0  0  0  0  0  0  0  0
   -2.8875   -9.8409  -62.9857 C   0  0  0  0  0  0  0  0  0  0  0  0
   -0.5637   -9.2072  -62.7919 C   0  0  0  0  0  0  0  0  0  0  0  0
    1.3887   -4.2149  -59.3468 C   0  0  0  0  0  0  0  0  0  0  0  0
    2.2211   -3.5991  -58.4161 C   0  0  0  0  0  0  0  0  0  0  0  0
    3.0856   -2.7639  -58.7849 O   0  0  0  0  0  0  0  0  0  0  0  0
    2.0979   -3.8964  -57.1446 O   0  0  0  0  0  0  0  0  0  0  0  0
    1.2173   -4.7577  -56.6945 C   0  0  0  0  0  0  0  0  0  0  0  0
    1.0910   -5.0679  -55.3598 C   0  0  0  0  0  0  0  0  0  0  0  0
  1  2  1  0
  2  3  1  0
  3  4  2  0
  4  5  1  0
  5  6  2  0
  6  7  1  0
  7  8  1  0
  8  9  1  0
  9 10  1  0
 10 11  1  0
 11 12  1  0
 12 13  1  0
 13 14  1  0
 13 15  1  0
  7 16  2  0
 16 17  1  0
 17 18  2  0
 17 19  1  0
 19 20  1  0
 20 21  2  0
 21  3  1  0
 20  6  1  0
M  END
$$$$
