
     RDKit          3D

 25 28  0  0  0  0  0  0  0  0999 V2000
  127.4453  136.3058  144.8171 C   0  0  0  0  0  0  0  0  0  0  0  0
  127.7952  137.5650  144.2756 O   0  0  0  0  0  0  0  0  0  0  0  0
  127.7326  138.7039  145.0652 C   0  0  0  0  0  0  0  0  0  0  0  0
  127.7004  138.6718  146.4480 C   0  0  0  0  0  0  0  0  0  0  0  0
  127.6384  139.8099  147.2148 C   0  0  0  0  0  0  0  0  0  0  0  0
  127.6062  141.0441  146.5988 C   0  0  0  0  0  0  0  0  0  0  0  0
  127.5405  142.2868  147.3529 C   0  0  0  0  0  0  0  0  0  0  0  0
  127.5064  143.3567  146.6877 O   0  0  0  0  0  0  0  0  0  0  0  0
  127.5117  142.3965  148.7606 N   0  0  0  0  0  0  0  0  0  0  0  0
  127.4686  143.6409  149.4475 C   0  0  0  0  0  0  0  0  0  0  0  0
  126.9478  144.8725  149.0077 C   0  0  0  0  0  0  0  0  0  0  0  0
  127.1368  145.7383  149.9984 C   0  0  0  0  0  0  0  0  0  0  0  0
  127.7570  145.0585  151.0200 N   0  0  0  0  0  0  0  0  0  0  0  0
  127.9565  143.7981  150.6892 N   0  0  0  0  0  0  0  0  0  0  0  0
  128.5814  142.8391  151.5452 C   0  0  0  0  0  0  0  0  0  0  0  0
  128.3931  141.4906  151.3232 C   0  0  0  0  0  0  0  0  0  0  0  0
  129.0043  140.5781  152.1599 C   0  0  0  0  0  0  0  0  0  0  0  0
  129.8020  141.0224  153.2159 C   0  0  0  0  0  0  0  0  0  0  0  0
  129.9977  142.3646  153.4480 C   0  0  0  0  0  0  0  0  0  0  0  0
  129.3803  143.2637  152.6033 C   0  0  0  0  0  0  0  0  0  0  0  0
  126.6825  147.1203  149.8089 C   0  0  0  0  0  0  0  0  0  0  0  0
  125.6373  146.9574  148.3080 S   0  0  0  0  0  0  0  0  0  0  0  0
  126.2959  145.3499  147.7836 C   0  0  0  0  0  0  0  0  0  0  0  0
  127.6384  141.0697  145.2232 C   0  0  0  0  0  0  0  0  0  0  0  0
  127.7009  139.9304  144.4405 C   0  0  0  0  0  0  0  0  0  0  0  0
  1  2  1  0
  2  3  1  0
  3  4  2  0
  4  5  1  0
  5  6  2  0
  6  7  1  0
  7  8  2  0
  7  9  1  0
  9 10  1  0
 10 11  2  0
 11 12  1  0
 12 13  2  0
 13 14  1  0
 14 15  1  0
 15 16  2  0
 16 17  1  0
 17 18  2  0
 18 19  1  0
 19 20  2  0
 12 21  1  0
 21 22  1  0
 22 23  1  0
  6 24  1  0
 24 25  2  0
 25  3  1  0
 14 10  1  0
 20 15  1  0
 23 11  1  0
M  END
$$$$
