
     RDKit          3D

 25 28  0  0  0  0  0  0  0  0999 V2000
  127.7760  138.9541  143.4009 C   0  0  0  0  0  0  0  0  0  0  0  0
  127.3806  138.3370  144.6109 O   0  0  0  0  0  0  0  0  0  0  0  0
  127.5793  138.9863  145.8206 C   0  0  0  0  0  0  0  0  0  0  0  0
  127.9482  140.3160  145.9205 C   0  0  0  0  0  0  0  0  0  0  0  0
  128.1407  140.9434  147.1273 C   0  0  0  0  0  0  0  0  0  0  0  0
  127.9637  140.2350  148.2980 C   0  0  0  0  0  0  0  0  0  0  0  0
  128.1518  140.8403  149.6077 C   0  0  0  0  0  0  0  0  0  0  0  0
  127.8016  140.1575  150.6075 O   0  0  0  0  0  0  0  0  0  0  0  0
  128.6909  142.1222  149.8540 N   0  0  0  0  0  0  0  0  0  0  0  0
  128.7123  142.7280  151.1404 C   0  0  0  0  0  0  0  0  0  0  0  0
  129.2346  142.2201  152.3448 C   0  0  0  0  0  0  0  0  0  0  0  0
  129.0200  143.1488  153.2713 C   0  0  0  0  0  0  0  0  0  0  0  0
  128.3831  144.1995  152.6542 N   0  0  0  0  0  0  0  0  0  0  0  0
  128.1981  143.9469  151.3736 N   0  0  0  0  0  0  0  0  0  0  0  0
  127.5616  144.8503  150.4673 C   0  0  0  0  0  0  0  0  0  0  0  0
  128.0575  146.1274  150.3046 C   0  0  0  0  0  0  0  0  0  0  0  0
  127.4302  146.9869  149.4249 C   0  0  0  0  0  0  0  0  0  0  0  0
  126.3078  146.5616  148.7118 C   0  0  0  0  0  0  0  0  0  0  0  0
  125.8034  145.2904  148.8650 C   0  0  0  0  0  0  0  0  0  0  0  0
  126.4414  144.4436  149.7477 C   0  0  0  0  0  0  0  0  0  0  0  0
  129.4697  142.8795  154.6414 C   0  0  0  0  0  0  0  0  0  0  0  0
  130.5464  141.4136  154.3899 S   0  0  0  0  0  0  0  0  0  0  0  0
  129.9085  140.9810  152.7471 C   0  0  0  0  0  0  0  0  0  0  0  0
  127.5968  138.9128  148.1924 C   0  0  0  0  0  0  0  0  0  0  0  0
  127.4000  138.2702  146.9829 C   0  0  0  0  0  0  0  0  0  0  0  0
  1  2  1  0
  2  3  1  0
  3  4  2  0
  4  5  1  0
  5  6  2  0
  6  7  1  0
  7  8  2  0
  7  9  1  0
  9 10  1  0
 10 11  2  0
 11 12  1  0
 12 13  2  0
 13 14  1  0
 14 15  1  0
 15 16  2  0
 16 17  1  0
 17 18  2  0
 18 19  1  0
 19 20  2  0
 12 21  1  0
 21 22  1  0
 22 23  1  0
  6 24  1  0
 24 25  2  0
 25  3  1  0
 14 10  1  0
 20 15  1  0
 23 11  1  0
M  END
$$$$
