
     RDKit          3D

 20 20  0  0  0  0  0  0  0  0999 V2000
  131.2347  142.3840  151.4583 C   0  0  0  0  0  0  0  0  0  0  0  0
  130.6042  141.9816  150.1332 C   0  0  0  0  0  0  0  0  0  0  0  0
  129.2668  141.6304  150.3130 O   0  0  0  0  0  0  0  0  0  0  0  0
  128.5831  142.8286  150.6506 C   0  0  0  0  0  0  0  0  0  0  0  0
  127.2288  142.3849  151.0790 C   0  0  0  0  0  0  0  0  0  0  0  0
  126.3092  141.9379  150.2426 C   0  0  0  0  0  0  0  0  0  0  0  0
  125.8787  142.8687  148.7911 Cl  0  0  0  0  0  0  0  0  0  0  0  0
  125.6291  140.6554  150.5147 C   0  0  0  0  0  0  0  0  0  0  0  0
  124.7577  140.0972  149.0398 Cl  0  0  0  0  0  0  0  0  0  0  0  0
  129.2444  143.3894  151.8387 N   0  0  0  0  0  0  0  0  0  0  0  0
  128.8430  144.2251  152.5355 N   0  0  0  0  0  0  0  0  0  0  0  0
  128.4109  145.1732  153.3441 C   0  0  0  0  0  0  0  0  0  0  0  0
  127.1782  145.7573  153.2967 C   0  0  0  0  0  0  0  0  0  0  0  0
  126.1863  145.3661  152.3015 C   0  0  0  0  0  0  0  0  0  0  0  0
  126.3344  145.3979  150.9981 C   0  0  0  0  0  0  0  0  0  0  0  0
  127.5318  145.8376  150.2595 C   0  0  0  0  0  0  0  0  0  0  0  0
  128.0987  144.8644  149.3236 C   0  0  0  0  0  0  0  0  0  0  0  0
  128.2386  145.2824  147.9384 N   0  0  0  0  0  0  0  0  0  0  0  0
  128.1522  146.4941  147.6771 O   0  0  0  0  0  0  0  0  0  0  0  0
  128.4743  143.7189  149.5882 N   0  0  0  0  0  0  0  0  0  0  0  0
  1  2  1  0
  2  3  1  0
  3  4  1  0
  4  5  1  0
  5  6  2  3
  6  7  1  0
  6  8  1  0
  8  9  1  0
  4 10  1  0
 10 11  2  0
 11 12  1  0
 12 13  2  0
 13 14  1  0
 14 15  2  0
 15 16  1  0
 16 17  1  0
 17 18  1  0
 18 19  2  0
 17 20  2  0
 20  4  1  0
M  END
$$$$
