
     RDKit          3D

 20 20  0  0  0  0  0  0  0  0999 V2000
  125.1510  146.5882  152.1599 C   0  0  0  0  0  0  0  0  0  0  0  0
  126.2351  145.6930  152.7419 C   0  0  0  0  0  0  0  0  0  0  0  0
  126.7141  144.8106  151.7743 O   0  0  0  0  0  0  0  0  0  0  0  0
  126.3735  145.3765  150.5168 C   0  0  0  0  0  0  0  0  0  0  0  0
  126.4763  144.2478  149.5525 C   0  0  0  0  0  0  0  0  0  0  0  0
  127.6056  143.6158  149.2869 C   0  0  0  0  0  0  0  0  0  0  0  0
  129.1558  144.4845  149.3163 Cl  0  0  0  0  0  0  0  0  0  0  0  0
  127.5828  142.1757  148.9596 C   0  0  0  0  0  0  0  0  0  0  0  0
  127.5366  141.9529  147.1723 Cl  0  0  0  0  0  0  0  0  0  0  0  0
  124.9542  145.7572  150.5789 N   0  0  0  0  0  0  0  0  0  0  0  0
  124.2638  146.0363  149.6897 N   0  0  0  0  0  0  0  0  0  0  0  0
  123.4566  146.3579  148.6976 C   0  0  0  0  0  0  0  0  0  0  0  0
  123.7634  146.2892  147.3694 C   0  0  0  0  0  0  0  0  0  0  0  0
  125.0709  145.8338  146.9109 C   0  0  0  0  0  0  0  0  0  0  0  0
  126.2334  146.3524  147.2295 C   0  0  0  0  0  0  0  0  0  0  0  0
  126.4684  147.5066  148.1156 C   0  0  0  0  0  0  0  0  0  0  0  0
  127.3578  147.2677  149.2542 C   0  0  0  0  0  0  0  0  0  0  0  0
  128.5231  148.1282  149.3754 N   0  0  0  0  0  0  0  0  0  0  0  0
  129.5040  147.7057  150.0104 O   0  0  0  0  0  0  0  0  0  0  0  0
  127.2215  146.4078  150.1289 N   0  0  0  0  0  0  0  0  0  0  0  0
  1  2  1  0
  2  3  1  0
  3  4  1  0
  4  5  1  0
  5  6  2  3
  6  7  1  0
  6  8  1  0
  8  9  1  0
  4 10  1  0
 10 11  2  0
 11 12  1  0
 12 13  2  0
 13 14  1  0
 14 15  2  0
 15 16  1  0
 16 17  1  0
 17 18  1  0
 18 19  2  0
 17 20  2  0
 20  4  1  0
M  END
$$$$
