
     RDKit          3D

 19 20  0  0  0  0  0  0  0  0999 V2000
    3.4385   32.8641   -3.4001 C   0  0  0  0  0  0  0  0  0  0  0  0
    2.9417   32.1553   -4.1741 C   0  0  0  0  0  0  0  0  0  0  0  0
    2.3245   31.3071   -5.1342 C   0  0  0  0  0  0  0  0  0  0  0  0
    2.7436   31.2251   -6.4385 C   0  0  0  0  0  0  0  0  0  0  0  0
    2.1112   30.3702   -7.3465 C   0  0  0  0  0  0  0  0  0  0  0  0
    1.0491   29.5830   -6.9641 C   0  0  0  0  0  0  0  0  0  0  0  0
    0.4233   28.6807   -7.9900 C   0  0  0  0  0  0  0  0  0  0  0  0
    1.4789   27.9175   -8.5802 N   0  0  0  0  0  0  0  0  0  0  0  0
    1.5237   26.5476   -8.1462 C   0  0  0  0  0  0  0  0  0  0  0  0
    1.5627   26.3879   -6.6442 C   0  0  0  0  0  0  0  0  0  0  0  0
    0.5274   27.0958   -6.0335 O   0  0  0  0  0  0  0  0  0  0  0  0
    2.8627   26.8862   -6.1551 C   0  0  0  0  0  0  0  0  0  0  0  0
    2.9710   27.5210   -4.9437 C   0  0  0  0  0  0  0  0  0  0  0  0
    4.1749   27.9952   -4.4622 C   0  0  0  0  0  0  0  0  0  0  0  0
    5.3152   27.8390   -5.2000 C   0  0  0  0  0  0  0  0  0  0  0  0
    5.2108   27.1978   -6.4246 C   0  0  0  0  0  0  0  0  0  0  0  0
    4.0194   26.7261   -6.9063 C   0  0  0  0  0  0  0  0  0  0  0  0
    0.6228   29.6561   -5.6680 C   0  0  0  0  0  0  0  0  0  0  0  0
    1.2448   30.5024   -4.7603 C   0  0  0  0  0  0  0  0  0  0  0  0
  1  2  3  0
  2  3  1  0
  3  4  2  0
  4  5  1  0
  5  6  2  0
  6  7  1  0
  7  8  1  0
  8  9  1  0
  9 10  1  0
 10 11  1  0
 10 12  1  0
 12 13  2  0
 13 14  1  0
 14 15  2  0
 15 16  1  0
 16 17  2  0
  6 18  1  0
 18 19  2  0
 19  3  1  0
 17 12  1  0
M  END
$$$$
