
     RDKit          3D

 22 23  0  0  0  0  0  0  0  0999 V2000
  149.2859  157.5017  160.0191 N   0  0  0  0  0  0  0  0  0  0  0  0
  149.1244  156.3590  159.2800 N   0  0  0  0  0  0  0  0  0  0  0  0
  148.5884  155.2775  159.6985 C   0  0  0  0  0  0  0  0  0  0  0  0
  149.0059  154.8287  161.0018 N   0  0  0  0  0  0  0  0  0  0  0  0
  149.9507  155.5731  161.7934 C   0  0  0  0  0  0  0  0  0  0  0  0
  149.9006  155.1774  163.2419 C   0  0  0  0  0  0  0  0  0  0  0  0
  149.6952  153.8085  163.3077 O   0  0  0  0  0  0  0  0  0  0  0  0
  147.6295  154.5123  158.9252 C   0  0  0  0  0  0  0  0  0  0  0  0
  146.6022  153.8081  159.5648 C   0  0  0  0  0  0  0  0  0  0  0  0
  145.7255  153.0818  158.8353 C   0  0  0  0  0  0  0  0  0  0  0  0
  145.8402  153.0303  157.4397 C   0  0  0  0  0  0  0  0  0  0  0  0
  146.8432  153.7165  156.8058 C   0  0  0  0  0  0  0  0  0  0  0  0
  147.7453  154.4636  157.5591 C   0  0  0  0  0  0  0  0  0  0  0  0
  148.7910  155.1506  156.8829 N   0  0  0  0  0  0  0  0  0  0  0  0
  149.1675  154.7492  155.6918 C   0  0  0  0  0  0  0  0  0  0  0  0
  150.1087  155.5526  154.9261 C   0  0  0  0  0  0  0  0  0  0  0  0
  150.9479  155.1219  153.9857 C   0  0  0  0  0  0  0  0  0  0  0  0
  151.7314  156.2346  153.4479 C   0  0  0  0  0  0  0  0  0  0  0  0
  151.3726  157.3501  154.0592 C   0  0  0  0  0  0  0  0  0  0  0  0
  151.9885  158.9645  153.8027 Cl  0  0  0  0  0  0  0  0  0  0  0  0
  150.3214  157.0069  155.0393 C   0  0  0  0  0  0  0  0  0  0  0  0
  150.7359  157.5150  156.6895 Cl  0  0  0  0  0  0  0  0  0  0  0  0
  1  2  1  0
  2  3  2  3
  3  4  1  0
  4  5  1  0
  5  6  1  0
  6  7  1  0
  3  8  1  0
  8  9  2  0
  9 10  1  0
 10 11  2  0
 11 12  1  0
 12 13  2  0
 13 14  1  0
 14 15  2  3
 15 16  1  0
 16 17  2  0
 17 18  1  0
 18 19  2  0
 19 20  1  0
 19 21  1  0
 21 22  1  0
 13  8  1  0
 21 16  1  0
M  END
$$$$
