
     RDKit          3D

 26 28  0  0  0  0  0  0  0  0999 V2000
   16.7126   32.6581   27.1495 C   0  0  0  0  0  0  0  0  0  0  0  0
   16.5235   31.3203   27.5427 O   0  0  0  0  0  0  0  0  0  0  0  0
   15.7639   30.4350   26.7821 C   0  0  0  0  0  0  0  0  0  0  0  0
   16.2101   29.9849   25.5565 C   0  0  0  0  0  0  0  0  0  0  0  0
   15.4507   29.1141   24.8211 C   0  0  0  0  0  0  0  0  0  0  0  0
   14.2075   28.6430   25.2612 C   0  0  0  0  0  0  0  0  0  0  0  0
   13.4068   27.7071   24.4563 C   0  0  0  0  0  0  0  0  0  0  0  0
   12.6132   28.3395   23.4897 N   0  0  0  0  0  0  0  0  0  0  0  0
   13.1566   28.6343   22.2246 C   0  0  0  0  0  0  0  0  0  0  0  0
   12.1454   29.4099   21.4057 C   0  0  0  0  0  0  0  0  0  0  0  0
   10.8924   28.7448   21.3425 N   0  0  0  0  0  0  0  0  0  0  0  0
   10.7489   27.7540   20.3234 C   0  0  0  0  0  0  0  0  0  0  0  0
   11.1699   28.2078   18.9760 C   0  0  0  0  0  0  0  0  0  0  0  0
   12.5113   28.1181   18.6586 C   0  0  0  0  0  0  0  0  0  0  0  0
   12.9049   28.5421   17.4073 C   0  0  0  0  0  0  0  0  0  0  0  0
   11.9749   29.0374   16.5131 C   0  0  0  0  0  0  0  0  0  0  0  0
   10.6355   29.1327   16.8154 C   0  0  0  0  0  0  0  0  0  0  0  0
    9.7307   29.6403   15.8796 O   0  0  0  0  0  0  0  0  0  0  0  0
   10.2485   28.7057   18.0719 C   0  0  0  0  0  0  0  0  0  0  0  0
   10.3951   28.3553   22.6194 C   0  0  0  0  0  0  0  0  0  0  0  0
   11.2984   28.7271   23.7841 C   0  0  0  0  0  0  0  0  0  0  0  0
   13.7924   29.1131   26.4893 C   0  0  0  0  0  0  0  0  0  0  0  0
   12.2590   28.6079   27.1535 Cl  0  0  0  0  0  0  0  0  0  0  0  0
   14.5592   30.0009   27.2476 C   0  0  0  0  0  0  0  0  0  0  0  0
   14.1053   30.4434   28.4672 O   0  0  0  0  0  0  0  0  0  0  0  0
   13.4321   31.6949   28.6299 C   0  0  0  0  0  0  0  0  0  0  0  0
  1  2  1  0
  2  3  1  0
  3  4  2  0
  4  5  1  0
  5  6  2  0
  6  7  1  0
  7  8  1  0
  8  9  1  0
  9 10  1  0
 10 11  1  0
 11 12  1  0
 12 13  1  0
 13 14  2  0
 14 15  1  0
 15 16  2  0
 16 17  1  0
 17 18  1  0
 17 19  2  0
 11 20  1  0
 20 21  1  0
  6 22  1  0
 22 23  1  0
 22 24  2  0
 24 25  1  0
 25 26  1  0
 24  3  1  0
 21  8  1  0
 19 13  1  0
M  END
$$$$
