
     RDKit          3D

 19 20  0  0  0  0  0  0  0  0999 V2000
  174.8012  146.9156  159.4987 C   0  0  0  0  0  0  0  0  0  0  0  0
  173.8514  145.8375  159.0379 C   0  0  0  0  0  0  0  0  0  0  0  0
  173.3943  144.9627  160.1821 C   0  0  0  0  0  0  0  0  0  0  0  0
  172.5544  143.8778  159.7356 N   0  0  0  0  0  0  0  0  0  0  0  0
  172.9179  143.1445  158.5417 C   0  0  0  0  0  0  0  0  0  0  0  0
  171.3956  143.5653  160.4855 C   0  0  0  0  0  0  0  0  0  0  0  0
  171.1857  144.2047  161.5508 O   0  0  0  0  0  0  0  0  0  0  0  0
  170.4529  142.5193  160.0381 C   0  0  0  0  0  0  0  0  0  0  0  0
  170.3256  141.3836  160.8060 C   0  0  0  0  0  0  0  0  0  0  0  0
  169.4778  140.3841  160.4527 N   0  0  0  0  0  0  0  0  0  0  0  0
  168.7482  140.5128  159.3249 C   0  0  0  0  0  0  0  0  0  0  0  0
  167.8722  139.5009  158.9424 C   0  0  0  0  0  0  0  0  0  0  0  0
  167.1104  139.5923  157.8006 C   0  0  0  0  0  0  0  0  0  0  0  0
  167.1808  140.6974  156.9786 C   0  0  0  0  0  0  0  0  0  0  0  0
  166.3775  140.8415  155.7350 C   0  0  0  0  0  0  0  0  0  0  0  0
  168.0597  141.7135  157.3616 C   0  0  0  0  0  0  0  0  0  0  0  0
  168.8180  141.6165  158.5032 C   0  0  0  0  0  0  0  0  0  0  0  0
  169.7000  142.6251  158.8968 C   0  0  0  0  0  0  0  0  0  0  0  0
  169.7973  143.6362  158.1907 O   0  0  0  0  0  0  0  0  0  0  0  0
  1  2  1  0
  2  3  1  0
  3  4  1  0
  4  5  1  0
  4  6  1  0
  6  7  2  0
  6  8  1  0
  8  9  2  0
  9 10  1  0
 10 11  1  0
 11 12  2  0
 12 13  1  0
 13 14  2  0
 14 15  1  0
 14 16  1  0
 16 17  2  0
 17 18  1  0
 18 19  2  0
 18  8  1  0
 17 11  1  0
M  END
$$$$
