
     RDKit          3D

 22 23  0  0  0  0  0  0  0  0999 V2000
  113.6596  151.6844  141.3654 C   0  0  0  0  0  0  0  0  0  0  0  0
  113.1220  151.3091  139.9924 C   0  0  0  0  0  0  0  0  0  0  0  0
  113.9085  150.1507  139.4222 C   0  0  0  0  0  0  0  0  0  0  0  0
  113.6396  148.9334  140.2098 C   0  0  0  0  0  0  0  0  0  0  0  0
  114.3040  147.7238  139.7741 N   0  0  2  0  0  4  0  0  0  0  0  0
  113.5435  146.9589  138.8436 C   0  0  0  0  0  0  0  0  0  0  0  0
  114.7143  146.9151  140.9130 C   0  0  0  0  0  0  0  0  0  0  0  0
  116.0137  147.2653  141.4762 C   0  0  0  0  0  0  0  0  0  0  0  0
  117.2019  146.9103  140.8608 C   0  0  0  0  0  0  0  0  0  0  0  0
  117.2513  146.1762  139.5897 C   0  0  0  0  0  0  0  0  0  0  0  0
  118.3867  147.2447  141.4237 N   0  0  0  0  0  0  0  0  0  0  0  0
  118.4766  147.9219  142.5802 C   0  0  0  0  0  0  0  0  0  0  0  0
  119.6829  148.2620  143.1566 C   0  0  0  0  0  0  0  0  0  0  0  0
  119.7582  148.9671  144.3648 C   0  0  0  0  0  0  0  0  0  0  0  0
  118.6102  149.3435  145.0166 C   0  0  0  0  0  0  0  0  0  0  0  0
  118.6190  150.0384  146.2099 O   0  0  0  0  0  0  0  0  0  0  0  0
  118.8297  149.4702  147.4772 C   0  0  0  0  0  0  0  0  0  0  0  0
  117.4998  149.3058  148.1956 C   0  0  0  0  0  0  0  0  0  0  0  0
  117.3951  149.0090  144.4492 C   0  0  0  0  0  0  0  0  0  0  0  0
  117.3385  148.3051  143.2425 C   0  0  0  0  0  0  0  0  0  0  0  0
  116.1301  147.9676  142.6745 C   0  0  0  0  0  0  0  0  0  0  0  0
  115.0678  148.3063  143.2615 O   0  0  0  0  0  0  0  0  0  0  0  0
  1  2  1  0
  2  3  1  0
  3  4  1  0
  4  5  1  0
  5  6  1  6
  5  7  1  0
  7  8  1  0
  8  9  2  0
  9 10  1  0
  9 11  1  0
 11 12  1  0
 12 13  2  0
 13 14  1  0
 14 15  2  0
 15 16  1  0
 16 17  1  0
 17 18  1  0
 15 19  1  0
 19 20  2  0
 20 21  1  0
 21 22  2  0
 21  8  1  0
 20 12  1  0
M  CHG  1   5   1
M  END
$$$$
