
     RDKit          3D

 22 23  0  0  0  0  0  0  0  0999 V2000
  113.2377  141.6487  157.0907 C   0  0  0  0  0  0  0  0  0  0  0  0
  112.6349  141.9062  158.4637 C   0  0  0  0  0  0  0  0  0  0  0  0
  111.6428  140.8195  158.8109 C   0  0  0  0  0  0  0  0  0  0  0  0
  112.3262  139.7421  159.5503 C   0  0  0  0  0  0  0  0  0  0  0  0
  111.6150  138.4869  159.6642 N   0  0  2  0  0  4  0  0  0  0  0  0
  110.8546  138.3691  160.8630 C   0  0  0  0  0  0  0  0  0  0  0  0
  112.5194  137.3583  159.4986 C   0  0  0  0  0  0  0  0  0  0  0  0
  113.0094  137.1606  158.1387 C   0  0  0  0  0  0  0  0  0  0  0  0
  114.0299  136.2719  157.8466 C   0  0  0  0  0  0  0  0  0  0  0  0
  114.6836  135.4464  158.8705 C   0  0  0  0  0  0  0  0  0  0  0  0
  114.4632  136.1276  156.5722 N   0  0  0  0  0  0  0  0  0  0  0  0
  113.9427  136.8188  155.5449 C   0  0  0  0  0  0  0  0  0  0  0  0
  114.3839  136.6749  154.2458 C   0  0  0  0  0  0  0  0  0  0  0  0
  113.8308  137.4057  153.1864 C   0  0  0  0  0  0  0  0  0  0  0  0
  112.8164  138.3003  153.4209 C   0  0  0  0  0  0  0  0  0  0  0  0
  112.2316  139.0502  152.4196 O   0  0  0  0  0  0  0  0  0  0  0  0
  111.4759  140.2177  152.6173 C   0  0  0  0  0  0  0  0  0  0  0  0
  112.1435  141.3887  151.9140 C   0  0  0  0  0  0  0  0  0  0  0  0
  112.3651  138.4537  154.7182 C   0  0  0  0  0  0  0  0  0  0  0  0
  112.9286  137.7158  155.7636 C   0  0  0  0  0  0  0  0  0  0  0  0
  112.4837  137.8668  157.0583 C   0  0  0  0  0  0  0  0  0  0  0  0
  111.5532  138.6845  157.2888 O   0  0  0  0  0  0  0  0  0  0  0  0
  1  2  1  0
  2  3  1  0
  3  4  1  0
  4  5  1  0
  5  6  1  1
  5  7  1  0
  7  8  1  0
  8  9  2  0
  9 10  1  0
  9 11  1  0
 11 12  1  0
 12 13  2  0
 13 14  1  0
 14 15  2  0
 15 16  1  0
 16 17  1  0
 17 18  1  0
 15 19  1  0
 19 20  2  0
 20 21  1  0
 21 22  2  0
 21  8  1  0
 20 12  1  0
M  CHG  1   5   1
M  END
$$$$
