
     RDKit          3D

 23 22  0  0  0  0  0  0  0  0999 V2000
  148.3878  151.4458  142.5042 C   0  0  0  0  0  0  0  0  0  0  0  0
  149.1958  150.8407  143.2190 C   0  0  0  0  0  0  0  0  0  0  0  0
  149.0327  150.2393  144.4942 N   0  0  0  0  0  0  0  0  0  0  0  0
  150.0260  149.5160  145.2356 C   0  0  0  0  0  0  0  0  0  0  0  0
  149.6012  148.1337  145.4199 C   0  0  0  0  0  0  0  0  0  0  0  0
  149.4037  147.3512  144.1979 N   0  0  0  0  0  0  0  0  0  0  0  0
  149.6563  146.1068  144.1438 C   0  0  0  0  0  0  0  0  0  0  0  0
  149.9112  145.3814  145.3739 N   0  0  0  0  0  0  0  0  0  0  0  0
  150.1793  143.9733  145.2259 C   0  0  0  0  0  0  0  0  0  0  0  0
  151.4951  143.6876  144.6528 C   0  0  0  0  0  0  0  0  0  0  0  0
  151.9561  142.4836  144.4346 C   0  0  0  0  0  0  0  0  0  0  0  0
  153.2314  142.2704  143.7185 C   0  0  0  0  0  0  0  0  0  0  0  0
  154.2832  142.1077  143.1483 C   0  0  0  0  0  0  0  0  0  0  0  0
  155.3896  141.9339  142.5230 F   0  0  0  0  0  0  0  0  0  0  0  0
  150.1701  150.3407  146.5429 C   0  0  0  0  0  0  0  0  0  0  0  0
  150.0793  151.6245  146.1011 O   0  0  0  0  0  0  0  0  0  0  0  0
  151.1474  152.2747  145.5280 C   0  0  0  0  0  0  0  0  0  0  0  0
  152.3418  152.1441  146.3751 C   0  0  0  0  0  0  0  0  0  0  0  0
  153.6368  152.7507  146.0572 C   0  0  0  0  0  0  0  0  0  0  0  0
  154.7743  152.5941  147.0381 C   0  0  0  0  0  0  0  0  0  0  0  0
  156.0881  152.5691  146.3787 C   0  0  0  0  0  0  0  0  0  0  0  0
  157.2002  152.4590  147.2464 N   0  0  0  0  0  0  0  0  0  0  0  0
  157.9246  151.3211  147.2043 C   0  0  0  0  0  0  0  0  0  0  0  0
  1  2  2  0
  2  3  1  0
  3  4  1  0
  4  5  1  0
  5  6  1  0
  6  7  2  3
  7  8  1  0
  8  9  1  0
  9 10  1  0
 10 11  2  3
 11 12  1  0
 12 13  3  0
 13 14  1  0
  4 15  1  0
 15 16  1  0
 16 17  1  0
 17 18  1  0
 18 19  1  0
 19 20  1  0
 20 21  1  0
 21 22  1  0
 22 23  2  0
M  END
$$$$
