
     RDKit          3D

  9  9  0  0  0  0  0  0  0  0999 V2000
   -6.1526    6.0222  -21.5647 C   0  0  0  0  0  0  0  0  0  0  0  0
   -5.2532    6.6779  -22.0328 C   0  0  0  0  0  0  0  0  0  0  0  0
   -5.0420    7.5390  -22.9822 C   0  0  0  0  0  0  0  0  0  0  0  0
   -3.3477    8.4577  -23.4886 C   0  0  0  0  0  0  0  0  0  0  0  0
   -3.3883    8.0996  -23.0774 C   0  0  0  0  0  0  0  0  0  0  0  0
   -3.5308    7.0756  -21.9109 B   0  0  0  0  0  4  0  0  0  0  0  0
   -3.6624    6.2769  -21.0081 C   0  0  0  0  0  0  0  0  0  0  0  0
   -4.3486    5.3266  -20.1166 B   0  0  0  0  0  3  0  0  0  0  0  0
   -3.0955    4.6042  -18.4811 I   0  0  0  0  0  0  0  0  0  0  0  0
  1  2  2  0
  2  3  1  0
  3  4  2  0
  4  5  1  0
  5  6  3  0
  6  7  1  0
  7  8  2  3
  8  9  1  0
  7  2  1  0
M  CHG  2   6  -1   8  -1
M  RAD  1   8   2
M  END
$$$$
