
     RDKit          3D

 29 29  0  0  0  0  0  0  0  0999 V2000
  144.6138  152.1845  160.1929 C   0  0  0  0  0  0  0  0  0  0  0  0
  145.2393  152.6167  158.8754 C   0  0  0  0  0  0  0  0  0  0  0  0
  146.1625  153.7330  159.0701 C   0  0  0  0  0  0  0  0  0  0  0  0
  147.4811  153.5473  158.9714 C   0  0  0  0  0  0  0  0  0  0  0  0
  148.3889  154.4704  159.1079 N   0  0  0  0  0  0  0  0  0  0  0  0
  149.2154  155.3194  159.2416 C   0  0  0  0  0  0  0  0  0  0  0  0
  149.4414  155.8748  160.5995 C   0  0  0  0  0  0  0  0  0  0  0  0
  149.6086  155.0770  161.6255 C   0  0  0  0  0  0  0  0  0  0  0  0
  149.1749  155.3897  162.9401 C   0  0  0  0  0  0  0  0  0  0  0  0
  150.0295  156.0931  163.6671 C   0  0  0  0  0  0  0  0  0  0  0  0
  150.9484  156.8652  164.1840 C   0  0  0  0  0  0  0  0  0  0  0  0
  151.3595  157.9383  163.3649 N   0  0  0  0  0  0  0  0  0  0  0  0
  151.8391  158.9326  163.9169 N   0  0  0  0  0  0  0  0  0  0  0  0
  152.3411  160.1605  163.3889 C   0  0  0  0  0  0  0  0  0  0  0  0
  151.4855  160.8885  162.4626 C   0  0  0  0  0  0  0  0  0  0  0  0
  151.7337  161.3473  161.2620 C   0  0  0  0  0  0  0  0  0  0  0  0
  153.2617  161.2584  160.4146 Cl  0  0  0  0  0  0  0  0  0  0  0  0
  152.9959  160.9562  164.4714 C   0  0  0  0  0  0  0  0  0  0  0  0
  152.2302  161.3096  165.6719 C   0  0  0  0  0  0  0  0  0  0  0  0
  151.2900  160.3228  166.2482 C   0  0  0  0  0  0  0  0  0  0  0  0
  151.8988  159.1606  166.9748 C   0  0  0  0  0  0  0  0  0  0  0  0
  150.8736  158.1091  167.2250 C   0  0  0  0  0  0  0  0  0  0  0  0
  150.7012  157.0416  166.6089 N   0  0  0  0  0  0  0  0  0  0  0  0
  151.4083  156.5011  165.5024 C   0  0  0  0  0  0  0  0  0  0  0  0
  151.5308  154.7479  165.7587 Cl  0  0  0  0  0  0  0  0  0  0  0  0
  150.0461  155.8028  158.1582 N   0  0  0  0  0  0  0  0  0  0  0  0
  150.3366  157.1942  158.0477 C   0  0  0  0  0  0  0  0  0  0  0  0
  151.6324  157.6259  158.7087 C   0  0  0  0  0  0  0  0  0  0  0  0
  151.3944  158.5837  159.6791 O   0  0  0  0  0  0  0  0  0  0  0  0
  1  2  1  0
  2  3  1  0
  3  4  2  3
  4  5  1  0
  5  6  2  3
  6  7  1  0
  7  8  2  3
  8  9  1  0
  9 10  2  0
 10 11  2  0
 11 12  1  0
 12 13  2  0
 13 14  1  0
 14 15  1  0
 15 16  2  3
 16 17  1  0
 14 18  1  0
 18 19  1  0
 19 20  1  0
 20 21  1  0
 21 22  1  0
 22 23  2  0
 23 24  1  0
 24 25  1  0
  6 26  1  0
 26 27  1  0
 27 28  1  0
 28 29  1  0
 24 11  1  0
M  END
$$$$
