
     RDKit          3D

 25 28  0  0  0  0  0  0  0  0999 V2000
   -1.1269   -6.2357  -62.8084 C   0  0  0  0  0  0  0  0  0  0  0  0
   -1.9203   -7.4063  -62.3517 C   0  0  0  0  0  0  0  0  0  0  0  0
   -1.8443   -8.6397  -62.9494 C   0  0  0  0  0  0  0  0  0  0  0  0
   -2.5823   -9.7211  -62.5209 C   0  0  0  0  0  0  0  0  0  0  0  0
   -2.4870  -10.9693  -63.1474 O   0  0  0  0  0  0  0  0  0  0  0  0
   -3.4308   -9.5337  -61.4395 C   0  0  0  0  0  0  0  0  0  0  0  0
   -3.5302   -8.3240  -60.8250 C   0  0  0  0  0  0  0  0  0  0  0  0
   -4.3673   -8.1220  -59.7165 N   0  0  0  0  0  0  0  0  0  0  0  0
   -4.4877   -6.6747  -58.8048 S   0  0  0  0  0  6  0  0  0  0  0  0
   -5.2414   -5.6222  -59.5720 O   0  0  0  0  0  0  0  0  0  0  0  0
   -5.3778   -6.9911  -57.6049 O   0  0  0  0  0  0  0  0  0  0  0  0
   -2.9574   -6.0783  -58.2335 C   0  0  0  0  0  0  0  0  0  0  0  0
   -2.5153   -6.5192  -56.9939 C   0  0  0  0  0  0  0  0  0  0  0  0
   -1.2727   -6.0452  -56.5111 C   0  0  0  0  0  0  0  0  0  0  0  0
   -0.5747   -5.1849  -57.2805 C   0  0  0  0  0  0  0  0  0  0  0  0
   -0.9830   -4.7411  -58.4896 C   0  0  0  0  0  0  0  0  0  0  0  0
   -2.1988   -5.1857  -58.9956 C   0  0  0  0  0  0  0  0  0  0  0  0
   -0.2106   -3.7958  -59.3301 C   0  0  0  0  0  0  0  0  0  0  0  0
    0.9960   -3.2410  -58.6655 C   0  0  0  0  0  0  0  0  0  0  0  0
    1.4348   -3.8856  -57.4313 C   0  0  0  0  0  0  0  0  0  0  0  0
    2.5828   -3.6345  -56.9878 O   0  0  0  0  0  0  0  0  0  0  0  0
    0.6315   -4.7997  -56.6798 N   0  0  0  0  0  0  0  0  0  0  0  0
    0.7280   -5.4733  -55.3981 C   0  0  0  0  0  0  0  0  0  0  0  0
   -0.5186   -6.2973  -55.2724 C   0  0  0  0  0  0  0  0  0  0  0  0
   -2.7813   -7.2666  -61.2756 C   0  0  0  0  0  0  0  0  0  0  0  0
  1  2  1  0
  2  3  2  0
  3  4  1  0
  4  5  1  0
  4  6  2  0
  6  7  1  0
  7  8  1  0
  8  9  1  0
  9 10  2  0
  9 11  2  0
  9 12  1  0
 12 13  2  0
 13 14  1  0
 14 15  2  0
 15 16  1  0
 16 17  2  0
 16 18  1  0
 18 19  1  0
 19 20  1  0
 20 21  2  0
 20 22  1  0
 22 23  1  0
 23 24  1  0
  7 25  2  0
 25  2  1  0
 17 12  1  0
 24 14  1  0
 22 15  1  0
M  END
$$$$
