
     RDKit          3D

 33 36  0  0  0  0  0  0  0  0999 V2000
  131.2399  140.6564  155.8240 C   0  0  0  0  0  0  0  0  0  0  0  0
  130.2606  140.0095  155.1242 O   0  0  0  0  0  0  0  0  0  0  0  0
  130.2341  140.3355  153.7944 C   0  0  0  0  0  0  0  0  0  0  0  0
  129.1614  139.5904  153.0643 C   0  0  0  0  0  0  0  0  0  0  0  0
  129.0932  139.9899  151.6625 N   0  0  0  0  0  0  0  0  0  0  0  0
  128.7975  141.3008  151.2281 C   0  0  0  0  0  0  0  0  0  0  0  0
  128.9869  142.2385  152.0443 O   0  0  0  0  0  0  0  0  0  0  0  0
  128.2907  141.6015  149.8949 C   0  0  0  0  0  0  0  0  0  0  0  0
  127.9885  142.8608  149.4135 C   0  0  0  0  0  0  0  0  0  0  0  0
  128.1077  144.0863  150.1027 N   0  0  0  0  0  0  0  0  0  0  0  0
  127.5417  142.7822  148.1383 N   0  0  0  0  0  0  0  0  0  0  0  0
  127.1241  143.8889  147.2897 C   0  0  0  0  0  0  0  0  0  0  0  0
  127.9438  145.0867  147.7084 C   0  0  0  0  0  0  0  0  0  0  0  0
  127.3713  145.7829  148.8895 C   0  0  0  0  0  0  0  0  0  0  0  0
  128.1631  146.2978  149.8968 C   0  0  0  0  0  0  0  0  0  0  0  0
  127.5903  146.9477  150.9965 C   0  0  0  0  0  0  0  0  0  0  0  0
  126.2345  147.0923  151.1068 C   0  0  0  0  0  0  0  0  0  0  0  0
  125.6142  147.7293  152.1784 O   0  0  0  0  0  0  0  0  0  0  0  0
  126.3091  148.2526  153.2848 C   0  0  0  0  0  0  0  0  0  0  0  0
  125.4216  146.5786  150.0994 C   0  0  0  0  0  0  0  0  0  0  0  0
  124.0382  146.7300  150.2187 O   0  0  0  0  0  0  0  0  0  0  0  0
  123.2296  146.2680  149.1608 C   0  0  0  0  0  0  0  0  0  0  0  0
  126.0079  145.9477  149.0351 C   0  0  0  0  0  0  0  0  0  0  0  0
  127.5470  141.4779  147.7745 C   0  0  0  0  0  0  0  0  0  0  0  0
  127.2163  140.8148  146.6538 N   0  0  0  0  0  0  0  0  0  0  0  0
  127.3144  139.4849  146.5415 C   0  0  0  0  0  0  0  0  0  0  0  0
  126.9608  138.8597  145.3676 C   0  0  0  0  0  0  0  0  0  0  0  0
  127.0670  137.4956  145.2679 C   0  0  0  0  0  0  0  0  0  0  0  0
  127.5184  136.7567  146.3186 C   0  0  0  0  0  0  0  0  0  0  0  0
  127.8694  137.3911  147.4880 C   0  0  0  0  0  0  0  0  0  0  0  0
  127.7786  138.7632  147.6334 C   0  0  0  0  0  0  0  0  0  0  0  0
  128.1125  139.3977  148.7544 N   0  0  0  0  0  0  0  0  0  0  0  0
  128.0130  140.7304  148.8634 C   0  0  0  0  0  0  0  0  0  0  0  0
  1  2  1  0
  2  3  1  0
  3  4  1  0
  4  5  1  0
  5  6  1  0
  6  7  2  0
  6  8  1  0
  8  9  2  0
  9 10  1  0
  9 11  1  0
 11 12  1  0
 12 13  1  0
 13 14  1  0
 14 15  2  0
 15 16  1  0
 16 17  2  0
 17 18  1  0
 18 19  1  0
 17 20  1  0
 20 21  1  0
 21 22  1  0
 20 23  2  0
 11 24  1  0
 24 25  2  0
 25 26  1  0
 26 27  2  0
 27 28  1  0
 28 29  2  0
 29 30  1  0
 30 31  2  0
 31 32  1  0
 32 33  2  0
 33  8  1  0
 23 14  1  0
 33 24  1  0
 31 26  1  0
M  END
$$$$
