
     RDKit          3D

 20 20  0  0  0  0  0  0  0  0999 V2000
  153.3682  155.1883  152.4904 C   0  0  0  0  0  0  0  0  0  0  0  0
  153.1991  155.8834  153.8328 C   0  0  0  0  0  0  0  0  0  0  0  0
  152.6512  155.0457  154.7782 O   0  0  0  0  0  0  0  0  0  0  0  0
  151.4621  155.7041  155.3043 C   0  0  0  0  0  0  0  0  0  0  0  0
  151.6467  157.1299  154.9221 C   0  0  0  0  0  0  0  0  0  0  0  0
  150.9515  158.1696  155.2619 C   0  0  0  0  0  0  0  0  0  0  0  0
  149.5192  157.7959  156.3143 Cl  0  0  0  0  0  0  0  0  0  0  0  0
  151.0609  159.5860  154.9512 C   0  0  0  0  0  0  0  0  0  0  0  0
  151.0790  160.7395  156.2379 Cl  0  0  0  0  0  0  0  0  0  0  0  0
  151.3261  155.5328  156.6121 N   0  0  0  0  0  0  0  0  0  0  0  0
  151.2037  155.3807  157.7917 N   0  0  0  0  0  0  0  0  0  0  0  0
  151.0407  154.2384  158.6109 C   0  0  0  0  0  0  0  0  0  0  0  0
  150.6907  153.0088  158.5238 C   0  0  0  0  0  0  0  0  0  0  0  0
  150.2511  152.0191  157.5780 C   0  0  0  0  0  0  0  0  0  0  0  0
  149.9500  152.1295  156.2831 C   0  0  0  0  0  0  0  0  0  0  0  0
  150.0981  153.4631  155.7695 C   0  0  0  0  0  0  0  0  0  0  0  0
  149.7728  154.0754  154.5484 C   0  0  0  0  0  0  0  0  0  0  0  0
  148.8409  153.6727  153.5499 N   0  0  0  0  0  0  0  0  0  0  0  0
  148.8464  154.3218  152.4853 O   0  0  0  0  0  0  0  0  0  0  0  0
  150.4587  155.1925  154.3336 N   0  0  0  0  0  0  0  0  0  0  0  0
  1  2  1  0
  2  3  1  0
  3  4  1  0
  4  5  1  0
  5  6  2  3
  6  7  1  0
  6  8  1  0
  8  9  1  0
  4 10  1  0
 10 11  2  0
 11 12  1  0
 12 13  2  0
 13 14  1  0
 14 15  2  0
 15 16  1  0
 16 17  1  0
 17 18  1  0
 18 19  2  0
 17 20  2  0
 20  4  1  0
M  END
$$$$
