
     RDKit          3D

 18 19  0  0  0  0  0  0  0  0999 V2000
   43.5936   32.2819   18.0984 C   0  0  0  0  0  0  0  0  0  0  0  0
   44.1595   31.1184   17.3639 C   0  0  0  0  0  0  0  0  0  0  0  0
   44.6637   31.2301   16.0876 C   0  0  0  0  0  0  0  0  0  0  0  0
   45.1883   30.1349   15.4075 C   0  0  0  0  0  0  0  0  0  0  0  0
   45.2020   28.9028   16.0333 C   0  0  0  0  0  0  0  0  0  0  0  0
   44.7149   28.7443   17.2932 C   0  0  0  0  0  0  0  0  0  0  0  0
   44.6927   27.4487   18.0259 C   0  0  0  0  0  0  0  0  0  0  0  0
   43.3828   27.0309   18.3786 N   0  0  0  0  0  0  0  0  0  0  0  0
   42.7037   26.3003   17.3883 C   0  0  0  0  0  0  0  0  0  0  0  0
   41.3532   26.7389   16.9697 C   0  0  1  0  0  0  0  0  0  0  0  0
   41.1892   28.1231   16.9848 O   0  0  0  0  0  0  0  0  0  0  0  0
   40.9040   26.1160   15.7070 C   0  0  0  0  0  0  0  0  0  0  0  0
   41.1799   24.7489   15.5063 C   0  0  0  0  0  0  0  0  0  0  0  0
   40.7978   24.1301   14.3492 C   0  0  0  0  0  0  0  0  0  0  0  0
   40.1414   24.8524   13.3806 C   0  0  0  0  0  0  0  0  0  0  0  0
   39.8469   26.1809   13.5194 C   0  0  0  0  0  0  0  0  0  0  0  0
   40.2478   26.8000   14.7158 C   0  0  0  0  0  0  0  0  0  0  0  0
   44.2016   29.8551   17.9380 C   0  0  0  0  0  0  0  0  0  0  0  0
  1  2  1  0
  2  3  2  0
  3  4  1  0
  4  5  2  0
  5  6  1  0
  6  7  1  0
  7  8  1  0
  8  9  1  0
  9 10  1  0
 10 11  1  6
 10 12  1  0
 12 13  2  0
 13 14  1  0
 14 15  2  0
 15 16  1  0
 16 17  2  0
  6 18  2  0
 18  2  1  0
 17 12  1  0
M  END
$$$$
