
     RDKit          3D

 22 24  0  0  0  0  0  0  0  0999 V2000
    4.4684   31.6550   -3.6970 C   0  0  0  0  0  0  0  0  0  0  0  0
    4.4218   30.2842   -4.3108 C   0  0  0  0  0  0  0  0  0  0  0  0
    3.0721   29.3717   -4.8766 S   0  0  0  0  0  0  0  0  0  0  0  0
    3.9084   27.9891   -5.4010 C   0  0  0  0  0  0  0  0  0  0  0  0
    3.4271   26.7643   -5.9944 N   0  0  0  0  0  0  0  0  0  0  0  0
    2.4022   26.7927   -6.9876 C   0  0  0  0  0  0  0  0  0  0  0  0
    1.9776   25.6462   -7.6302 C   0  0  0  0  0  0  0  0  0  0  0  0
    0.9714   25.6824   -8.5706 C   0  0  0  0  0  0  0  0  0  0  0  0
    0.3573   26.8724   -8.8963 C   0  0  0  0  0  0  0  0  0  0  0  0
    0.7743   28.0197   -8.2602 C   0  0  0  0  0  0  0  0  0  0  0  0
    0.1111   29.3174   -8.5892 C   0  0  0  0  0  0  0  0  0  0  0  0
    1.7798   27.9812   -7.3223 C   0  0  0  0  0  0  0  0  0  0  0  0
    5.1688   28.2876   -5.1218 N   0  0  0  0  0  0  0  0  0  0  0  0
    5.4572   29.4273   -4.5756 C   0  0  0  0  0  0  0  0  0  0  0  0
    6.8415   29.7925   -4.2333 C   0  0  0  0  0  0  0  0  0  0  0  0
    7.3259   29.6728   -2.9511 C   0  0  0  0  0  0  0  0  0  0  0  0
    8.6524   29.9821   -2.6353 C   0  0  0  0  0  0  0  0  0  0  0  0
    9.1553   29.8388   -1.2471 C   0  0  0  0  0  0  0  0  0  0  0  0
    9.4899   30.4169   -3.6370 C   0  0  0  0  0  0  0  0  0  0  0  0
    9.0253   30.5474   -4.9435 C   0  0  0  0  0  0  0  0  0  0  0  0
    7.6841   30.2264   -5.2198 C   0  0  0  0  0  0  0  0  0  0  0  0
    7.1805   30.3708   -6.6047 C   0  0  0  0  0  0  0  0  0  0  0  0
  1  2  1  0
  2  3  1  0
  3  4  1  0
  4  5  1  0
  5  6  1  0
  6  7  2  0
  7  8  1  0
  8  9  2  0
  9 10  1  0
 10 11  1  0
 10 12  2  0
  4 13  2  0
 13 14  1  0
 14 15  1  0
 15 16  2  0
 16 17  1  0
 17 18  1  0
 17 19  2  0
 19 20  1  0
 20 21  2  0
 21 22  1  0
 14  2  2  0
 21 15  1  0
 12  6  1  0
M  END
$$$$
