
     RDKit          3D

 26 28  0  0  0  0  0  0  0  0999 V2000
    2.7835   32.4647   -2.3368 C   0  0  0  0  0  0  0  0  0  0  0  0
    2.7170   32.6168   -3.8358 C   0  0  0  0  0  0  0  0  0  0  0  0
    2.5132   31.3240   -4.3874 O   0  0  0  0  0  0  0  0  0  0  0  0
    2.4704   31.0577   -5.7280 C   0  0  0  0  0  0  0  0  0  0  0  0
    2.9946   31.9189   -6.4987 O   0  0  0  0  0  0  0  0  0  0  0  0
    1.8861   29.8878   -6.3567 C   0  0  0  0  0  0  0  0  0  0  0  0
    0.5281   29.7256   -6.4862 C   0  0  0  0  0  0  0  0  0  0  0  0
   -0.0359   28.6608   -7.0784 N   0  0  0  0  0  0  0  0  0  0  0  0
    0.7727   27.7021   -7.5713 C   0  0  0  0  0  0  0  0  0  0  0  0
    0.1296   26.6152   -8.1811 C   0  0  0  0  0  0  0  0  0  0  0  0
    0.9344   25.6231   -8.6953 C   0  0  0  0  0  0  0  0  0  0  0  0
    2.3080   25.7062   -8.6083 C   0  0  0  0  0  0  0  0  0  0  0  0
    2.9210   26.7906   -8.0007 C   0  0  0  0  0  0  0  0  0  0  0  0
    2.1297   27.8013   -7.4757 C   0  0  0  0  0  0  0  0  0  0  0  0
    2.7095   28.9129   -6.8569 C   0  0  0  0  0  0  0  0  0  0  0  0
    4.1276   28.9412   -6.7780 N   0  0  0  0  0  0  0  0  0  0  0  0
    4.8440   29.4903   -7.9176 C   0  0  0  0  0  0  0  0  0  0  0  0
    6.3164   29.3164   -7.7151 C   0  0  0  0  0  0  0  0  0  0  0  0
    7.2256   29.6305   -8.6896 C   0  0  0  0  0  0  0  0  0  0  0  0
    8.5827   29.4608   -8.4808 C   0  0  0  0  0  0  0  0  0  0  0  0
    9.0810   28.9720   -7.2928 C   0  0  0  0  0  0  0  0  0  0  0  0
   10.4677   28.7923   -7.0628 N   0  0  0  0  0  4  0  0  0  0  0  0
   10.9135   28.2524   -6.0323 O   0  0  0  0  0  0  0  0  0  0  0  0
   11.3697   29.2246   -8.0031 O   0  0  0  0  0  1  0  0  0  0  0  0
    8.1634   28.6570   -6.3143 C   0  0  0  0  0  0  0  0  0  0  0  0
    6.8163   28.8251   -6.5209 C   0  0  0  0  0  0  0  0  0  0  0  0
  1  2  1  0
  2  3  1  0
  3  4  1  0
  4  5  2  0
  4  6  1  0
  6  7  2  0
  7  8  1  0
  8  9  2  0
  9 10  1  0
 10 11  2  0
 11 12  1  0
 12 13  2  0
 13 14  1  0
 14 15  2  0
 15 16  1  0
 16 17  1  0
 17 18  1  0
 18 19  2  0
 19 20  1  0
 20 21  2  0
 21 22  1  0
 22 23  2  0
 22 24  1  0
 21 25  1  0
 25 26  2  0
 15  6  1  0
 26 18  1  0
 14  9  1  0
M  CHG  2  22   1  24  -1
M  END
$$$$
