
     RDKit          3D

 13 13  0  0  0  0  0  0  0  0999 V2000
  127.7760  134.8667  137.9278 O   0  0  0  0  0  1  0  0  0  0  0  0
  127.5481  135.4423  139.1295 N   0  0  0  0  0  0  0  0  0  0  0  0
  128.2250  136.4795  139.5219 C   0  0  0  0  0  0  0  0  0  0  0  0
  127.8034  137.0510  140.7476 N   0  0  0  0  0  0  0  0  0  0  0  0
  128.3038  138.2754  141.2798 C   0  0  0  0  0  0  0  0  0  0  0  0
  129.3019  138.9661  140.5742 C   0  0  0  0  0  0  0  0  0  0  0  0
  129.7782  140.1383  141.0709 C   0  0  0  0  0  0  0  0  0  0  0  0
  129.3407  140.7115  142.2465 C   0  0  0  0  0  0  0  0  0  0  0  0
  130.0073  142.2225  142.8138 Cl  0  0  0  0  0  0  0  0  0  0  0  0
  128.3611  140.0160  142.9214 C   0  0  0  0  0  0  0  0  0  0  0  0
  127.8567  140.5246  144.1272 N   0  0  0  0  0  0  0  0  0  0  0  0
  126.8318  139.5698  145.1710 Cl  0  0  0  0  0  0  0  0  0  0  0  0
  127.8385  138.8061  142.4517 C   0  0  0  0  0  0  0  0  0  0  0  0
  1  2  1  0
  2  3  2  3
  3  4  1  0
  4  5  1  0
  5  6  2  0
  6  7  1  0
  7  8  2  0
  8  9  1  0
  8 10  1  0
 10 11  1  0
 11 12  1  0
 10 13  2  0
 13  5  1  0
M  CHG  1   1  -1
M  END
$$$$
