
     RDKit          3D

 14 15  0  0  0  0  0  0  0  0999 V2000
   17.0950    6.5626    8.5878 C   0  0  0  0  0  0  0  0  0  0  0  0
   16.2337    7.6023    8.0770 C   0  0  0  0  0  0  0  0  0  0  0  0
   15.2991    7.2195    7.2189 C   0  0  0  0  0  0  0  0  0  0  0  0
   14.3226    6.7412    6.4920 C   0  0  0  0  0  0  0  0  0  0  0  0
   13.3534    7.6961    6.0592 C   0  0  0  0  0  0  0  0  0  0  0  0
   13.3706    9.3938    6.4816 Cl  0  0  0  0  0  0  0  0  0  0  0  0
   12.3839    7.2526    5.2882 N   0  0  0  0  0  0  0  0  0  0  0  0
   12.6354    6.0227    4.5769 C   0  0  0  0  0  0  0  0  0  0  0  0
   13.4640    6.3080    3.3729 C   0  0  0  0  0  0  0  0  0  0  0  0
   14.9353    6.1141    3.5683 C   0  0  0  0  0  0  0  0  0  0  0  0
   15.2400    4.8788    4.1311 O   0  0  0  0  0  0  0  0  0  0  0  0
   15.5511    4.9857    5.4443 N   0  0  0  0  0  0  0  0  0  0  0  0
   14.3800    5.3113    6.2440 C   0  0  0  0  0  0  0  0  0  0  0  0
   13.1640    4.9056    5.4372 C   0  0  0  0  0  0  0  0  0  0  0  0
  1  2  1  0
  2  3  2  0
  3  4  2  0
  4  5  1  0
  5  6  1  0
  5  7  2  0
  7  8  1  0
  8  9  1  0
  9 10  1  0
 10 11  1  0
 11 12  1  0
 12 13  1  0
 13 14  1  0
 13  4  1  0
 14  8  1  0
M  END
$$$$
