
     RDKit          3D

 14 15  0  0  0  0  0  0  0  0999 V2000
   27.9276   52.4812   27.4877 C   0  0  0  0  0  0  0  0  0  0  0  0
   28.5844   53.4474   26.6399 C   0  0  0  0  0  0  0  0  0  0  0  0
   27.9907   53.7129   25.4852 C   0  0  0  0  0  0  0  0  0  0  0  0
   27.3130   54.0842   24.4299 C   0  0  0  0  0  0  0  0  0  0  0  0
   27.9458   53.8361   23.1743 C   0  0  0  0  0  0  0  0  0  0  0  0
   29.5407   53.1430   22.9827 Cl  0  0  0  0  0  0  0  0  0  0  0  0
   27.2687   54.1572   22.0929 N   0  0  0  0  0  0  0  0  0  0  0  0
   25.8367   54.2626   22.2348 C   0  0  0  0  0  0  0  0  0  0  0  0
   25.2353   52.9005   22.2084 C   0  0  0  0  0  0  0  0  0  0  0  0
   24.9967   52.2980   23.5576 C   0  0  0  0  0  0  0  0  0  0  0  0
   24.3095   53.1558   24.4105 O   0  0  0  0  0  0  0  0  0  0  0  0
   25.1312   53.7245   25.3237 N   0  0  0  0  0  0  0  0  0  0  0  0
   26.0240   54.6934   24.7062 C   0  0  0  0  0  0  0  0  0  0  0  0
   25.3892   55.1105   23.3958 C   0  0  0  0  0  0  0  0  0  0  0  0
  1  2  1  0
  2  3  2  0
  3  4  2  0
  4  5  1  0
  5  6  1  0
  5  7  2  0
  7  8  1  0
  8  9  1  0
  9 10  1  0
 10 11  1  0
 11 12  1  0
 12 13  1  0
 13 14  1  0
 13  4  1  0
 14  8  1  0
M  END
$$$$
