
     RDKit          3D

 25 26  0  0  0  0  0  0  0  0999 V2000
   35.7526   49.8450   24.8831 C   0  0  0  0  0  0  0  0  0  0  0  0
   37.0537   49.4115   24.5452 O   0  0  0  0  0  0  0  0  0  0  0  0
   37.2621   48.1533   23.9899 C   0  0  0  0  0  0  0  0  0  0  0  0
   37.3178   47.0666   24.8249 C   0  0  0  0  0  0  0  0  0  0  0  0
   37.5240   45.8185   24.2801 C   0  0  0  0  0  0  0  0  0  0  0  0
   37.5851   44.6295   25.1802 C   0  0  0  0  0  0  0  0  0  0  0  0
   37.6784   45.6059   22.9268 C   0  0  0  0  0  0  0  0  0  0  0  0
   37.9059   44.2430   22.3984 C   0  0  2  0  0  0  0  0  0  0  0  0
   36.6049   43.6129   21.9305 C   0  0  0  0  0  0  0  0  0  0  0  0
   38.5359   43.3556   23.3325 N   0  0  0  0  0  0  0  0  0  0  0  0
   39.9467   43.2297   23.3171 C   0  0  0  0  0  0  0  0  0  0  0  0
   40.6349   43.9913   22.5560 O   0  0  0  0  0  0  0  0  0  0  0  0
   40.6877   42.2628   24.1332 C   0  0  0  0  0  0  0  0  0  0  0  0
   40.2508   40.9712   24.3370 C   0  0  0  0  0  0  0  0  0  0  0  0
   40.9848   40.0744   25.1183 C   0  0  0  0  0  0  0  0  0  0  0  0
   42.1869   40.4733   25.7137 C   0  0  0  0  0  0  0  0  0  0  0  0
   42.9872   39.5566   26.5443 C   0  0  0  0  0  0  0  0  0  0  0  0
   43.2773   38.2344   25.8504 C   0  0  0  0  0  0  0  0  0  0  0  0
   42.8766   37.1097   26.6480 N   0  0  0  0  0  4  0  0  0  0  0  0
   42.6262   41.7610   25.5125 C   0  0  0  0  0  0  0  0  0  0  0  0
   41.8819   42.6069   24.7436 C   0  0  0  0  0  0  0  0  0  0  0  0
   37.6186   46.7135   22.1043 C   0  0  0  0  0  0  0  0  0  0  0  0
   37.4120   47.9801   22.6312 C   0  0  0  0  0  0  0  0  0  0  0  0
   37.3607   49.0591   21.7679 O   0  0  0  0  0  0  0  0  0  0  0  0
   38.3685   49.2749   20.7901 C   0  0  0  0  0  0  0  0  0  0  0  0
  1  2  1  0
  2  3  1  0
  3  4  2  0
  4  5  1  0
  5  6  1  0
  5  7  2  0
  7  8  1  0
  8  9  1  1
  8 10  1  0
 10 11  1  0
 11 12  2  0
 11 13  1  0
 13 14  2  0
 14 15  1  0
 15 16  2  0
 16 17  1  0
 17 18  1  0
 18 19  1  0
 16 20  1  0
 20 21  2  0
  7 22  1  0
 22 23  2  0
 23 24  1  0
 24 25  1  0
 23  3  1  0
 21 13  1  0
M  CHG  1  19   1
M  END
$$$$
