
     RDKit          3D

 20 21  0  0  0  0  0  0  0  0999 V2000
   -0.6466   -6.9817  -58.8852 O   0  0  0  0  0  0  0  0  0  0  0  0
    0.1316   -6.0202  -59.1156 C   0  0  0  0  0  0  0  0  0  0  0  0
    0.3540   -5.6832  -60.4687 N   0  0  0  0  0  0  0  0  0  0  0  0
   -0.3220   -6.4033  -61.5321 C   0  0  0  0  0  0  0  0  0  0  0  0
   -1.2834   -5.7688  -62.2974 C   0  0  0  0  0  0  0  0  0  0  0  0
   -1.9318   -6.4661  -63.3203 C   0  0  0  0  0  0  0  0  0  0  0  0
   -1.5741   -7.7782  -63.5203 C   0  0  0  0  0  0  0  0  0  0  0  0
   -0.6131   -8.4271  -62.7620 C   0  0  0  0  0  0  0  0  0  0  0  0
   -0.1760  -10.1038  -63.0394 Cl  0  0  0  0  0  0  0  0  0  0  0  0
    0.0076   -7.7091  -61.7600 C   0  0  0  0  0  0  0  0  0  0  0  0
    0.7610   -5.3049  -58.0094 C   0  0  0  0  0  0  0  0  0  0  0  0
    1.4750   -4.1540  -58.1997 C   0  0  0  0  0  0  0  0  0  0  0  0
    2.0412   -3.5313  -57.1164 C   0  0  0  0  0  0  0  0  0  0  0  0
    1.9049   -4.0416  -55.8422 C   0  0  0  0  0  0  0  0  0  0  0  0
    1.1881   -5.2053  -55.6161 C   0  0  0  0  0  0  0  0  0  0  0  0
    1.0137   -5.7935  -54.2618 C   0  0  0  0  0  0  0  0  0  0  0  0
   -0.3556   -5.9264  -54.0654 F   0  0  0  0  0  0  0  0  0  0  0  0
    1.4837   -4.9049  -53.3145 F   0  0  0  0  0  0  0  0  0  0  0  0
    1.6532   -7.0017  -54.2244 F   0  0  0  0  0  0  0  0  0  0  0  0
    0.6270   -5.8182  -56.7080 C   0  0  0  0  0  0  0  0  0  0  0  0
  1  2  2  0
  2  3  1  0
  3  4  1  0
  4  5  2  0
  5  6  1  0
  6  7  2  0
  7  8  1  0
  8  9  1  0
  8 10  2  0
  2 11  1  0
 11 12  2  0
 12 13  1  0
 13 14  2  0
 14 15  1  0
 15 16  1  0
 16 17  1  0
 16 18  1  0
 16 19  1  0
 15 20  2  0
 10  4  1  0
 20 11  1  0
M  END
$$$$
