
     RDKit          3D

 29 30  0  0  0  0  0  0  0  0999 V2000
   -7.9001   -3.8468  -58.3712 C   0  0  0  0  0  0  0  0  0  0  0  0
   -6.5760   -3.9629  -57.6349 C   0  0  0  0  0  0  0  0  0  0  0  0
   -5.9836   -5.1828  -58.0953 O   0  0  0  0  0  0  0  0  0  0  0  0
   -4.9848   -5.1874  -59.0382 C   0  0  0  0  0  0  0  0  0  0  0  0
   -4.4661   -4.1063  -59.3712 O   0  0  0  0  0  0  0  0  0  0  0  0
   -4.5428   -6.4288  -59.6344 C   0  0  0  0  0  0  0  0  0  0  0  0
   -5.2440   -7.5000  -59.3976 C   0  0  0  0  0  0  0  0  0  0  0  0
   -4.8669   -8.7357  -59.9479 N   0  0  0  0  0  0  0  0  0  0  0  0
   -5.5968   -9.9623  -59.7314 C   0  0  0  0  0  0  0  0  0  0  0  0
   -6.5444  -10.3218  -60.8042 C   0  0  0  0  0  0  0  0  0  0  0  0
   -7.8710  -10.3048  -60.4468 O   0  0  0  0  0  0  0  0  0  0  0  0
   -8.7153  -10.9614  -61.3019 C   0  0  0  0  0  0  0  0  0  0  0  0
   -3.7068   -8.7681  -60.7614 C   0  0  0  0  0  0  0  0  0  0  0  0
   -2.9578   -7.7102  -61.0339 C   0  0  0  0  0  0  0  0  0  0  0  0
   -1.7631   -7.8432  -61.8950 C   0  0  0  0  0  0  0  0  0  0  0  0
   -0.9693   -6.8818  -61.9626 O   0  0  0  0  0  0  0  0  0  0  0  0
   -1.4847   -8.9775  -62.6264 O   0  0  0  0  0  0  0  0  0  0  0  0
   -0.3910   -9.0875  -63.5007 C   0  0  0  0  0  0  0  0  0  0  0  0
   -0.4145  -10.3612  -64.3170 C   0  0  0  0  0  0  0  0  0  0  0  0
   -3.3249   -6.4044  -60.4720 C   0  0  0  0  0  0  0  0  0  0  0  0
   -2.1722   -5.7953  -59.7608 C   0  0  0  0  0  0  0  0  0  0  0  0
   -1.6258   -6.3730  -58.6312 C   0  0  0  0  0  0  0  0  0  0  0  0
   -0.5620   -5.8281  -57.9511 C   0  0  0  0  0  0  0  0  0  0  0  0
   -0.0038   -4.6430  -58.4124 C   0  0  0  0  0  0  0  0  0  0  0  0
    1.0844   -4.0961  -57.7052 N   0  0  0  0  0  4  0  0  0  0  0  0
    1.6072   -3.0450  -58.1190 O   0  0  0  0  0  0  0  0  0  0  0  0
    1.6040   -4.6660  -56.5725 O   0  0  0  0  0  1  0  0  0  0  0  0
   -0.5449   -4.0630  -59.5381 C   0  0  0  0  0  0  0  0  0  0  0  0
   -1.6126   -4.6284  -60.2040 C   0  0  0  0  0  0  0  0  0  0  0  0
  1  2  1  0
  2  3  1  0
  3  4  1  0
  4  5  2  0
  4  6  1  0
  6  7  2  0
  7  8  1  0
  8  9  1  0
  9 10  1  0
 10 11  1  0
 11 12  1  0
  8 13  1  0
 13 14  2  0
 14 15  1  0
 15 16  2  0
 15 17  1  0
 17 18  1  0
 18 19  1  0
 14 20  1  0
 20 21  1  0
 21 22  2  0
 22 23  1  0
 23 24  2  0
 24 25  1  0
 25 26  2  0
 25 27  1  0
 24 28  1  0
 28 29  2  0
 20  6  1  0
 29 21  1  0
M  CHG  2  25   1  27  -1
M  END
$$$$
