
     RDKit          3D

 39 39  0  0  0  0  0  0  0  0999 V2000
    1.8490   -5.5182  -50.9516 C   0  0  0  0  0  0  0  0  0  0  0  0
    1.5306   -4.7695  -52.2688 C   0  0  0  0  0  0  0  0  0  0  0  0
    1.6341   -5.7210  -53.4659 C   0  0  0  0  0  0  0  0  0  0  0  0
    1.3995   -5.1286  -54.7103 N   0  0  0  0  0  0  0  0  0  0  0  0
    0.8240   -6.0555  -55.8070 C   0  0  0  0  0  0  0  0  0  0  0  0
    0.5362   -5.2018  -56.8320 C   0  0  0  0  0  0  0  0  0  0  0  0
   -0.5387   -4.9530  -57.5797 C   0  0  0  0  0  0  0  0  0  0  0  0
   -0.6173   -4.5717  -58.7741 C   0  0  0  0  0  0  0  0  0  0  0  0
   -1.5314   -4.6579  -59.8248 C   0  0  0  0  0  0  0  0  0  0  0  0
   -2.2964   -4.7210  -60.7313 C   0  0  0  0  0  0  0  0  0  0  0  0
   -3.3133   -4.8237  -61.9079 O   0  0  0  0  0  0  0  0  0  0  0  0
   -4.0413   -6.0926  -61.3417 O   0  0  0  0  0  0  0  0  0  0  0  0
   -3.9694   -7.0819  -62.2746 C   0  0  0  0  0  0  0  0  0  0  0  0
   -3.3867   -7.3154  -63.3635 C   0  0  0  0  0  0  0  0  0  0  0  0
   -3.2717   -8.1590  -64.3650 C   0  0  0  0  0  0  0  0  0  0  0  0
   -4.2568   -9.2902  -64.0912 C   0  0  0  0  0  0  0  0  0  0  0  0
   -4.9802   -9.2368  -62.9543 C   0  0  0  0  0  0  0  0  0  0  0  0
   -4.9424   -8.2741  -61.9984 C   0  0  0  0  0  0  0  0  0  0  0  0
   -5.2388   -8.3568  -60.7072 N   0  0  0  0  0  0  0  0  0  0  0  0
   -5.7103   -8.7602  -59.6528 C   0  0  0  0  0  0  0  0  0  0  0  0
   -6.6781   -7.9585  -58.9072 C   0  0  0  0  0  0  0  0  0  0  0  0
   -6.7078   -6.5194  -59.2179 N   0  0  0  0  0  0  0  0  0  0  0  0
   -7.6930   -5.8220  -58.4922 C   0  0  0  0  0  0  0  0  0  0  0  0
   -7.3303   -4.4363  -59.2821 C   0  0  0  0  0  0  0  0  0  0  0  0
   -7.8976   -3.2064  -59.1312 C   0  0  0  0  0  0  0  0  0  0  0  0
   -7.4673   -2.1721  -59.9319 C   0  0  0  0  0  0  0  0  0  0  0  0
   -7.5228   -0.9771  -60.4768 C   0  0  0  0  0  0  0  0  0  0  0  0
   -7.8813    0.2955  -60.4551 N   0  0  0  0  0  0  0  0  0  0  0  0
   -5.3646  -10.1206  -59.3956 N   0  0  0  0  0  0  0  0  0  0  0  0
   -5.8099  -11.1210  -60.2945 C   0  0  0  0  0  0  0  0  0  0  0  0
   -6.7687  -11.9591  -60.2408 C   0  0  0  0  0  0  0  0  0  0  0  0
   -7.1336  -12.9797  -61.2505 C   0  0  0  0  0  0  0  0  0  0  0  0
   -6.3579  -14.0696  -61.4666 C   0  0  0  0  0  0  0  0  0  0  0  0
   -5.0316  -14.2580  -60.3713 Cl  0  0  0  0  0  0  0  0  0  0  0  0
   -6.6657  -14.9191  -62.4769 O   0  0  0  0  0  0  0  0  0  0  0  0
   -7.6222  -15.9458  -62.4930 C   0  0  0  0  0  0  0  0  0  0  0  0
   -7.7528  -16.6164  -63.8960 C   0  0  0  0  0  0  0  0  0  0  0  0
   -8.7376  -17.6138  -63.8687 N   0  0  0  0  0  0  0  0  0  0  0  0
   -9.0705  -18.2160  -65.1246 C   0  0  0  0  0  0  0  0  0  0  0  0
  1  2  1  0
  2  3  1  0
  3  4  1  0
  4  5  1  0
  5  6  2  3
  6  7  1  0
  7  8  2  3
  8  9  1  0
  9 10  3  0
 10 11  1  0
 11 12  1  0
 12 13  1  0
 13 14  2  0
 14 15  1  0
 15 16  2  0
 16 17  1  0
 17 18  2  0
 18 19  1  0
 19 20  2  3
 20 21  1  0
 21 22  1  0
 22 23  1  0
 23 24  2  3
 24 25  1  0
 25 26  2  0
 26 27  2  0
 27 28  2  0
 20 29  1  0
 29 30  1  0
 30 31  2  3
 31 32  1  0
 32 33  2  3
 33 34  1  0
 33 35  1  0
 35 36  1  0
 36 37  1  0
 37 38  1  0
 38 39  1  0
 18 13  1  0
M  END
$$$$
