
     RDKit          3D

 21 21  0  0  0  0  0  0  0  0999 V2000
    0.0076   24.8700   -9.9146 C   0  0  0  0  0  0  0  0  0  0  0  0
    0.2652   25.5799   -8.5799 C   0  0  0  0  0  0  0  0  0  0  0  0
    0.3967   26.9906   -8.7812 N   0  0  0  0  0  0  0  0  0  0  0  0
    1.1255   27.8984   -7.9786 C   0  0  0  0  0  0  0  0  0  0  0  0
    1.6482   27.5262   -6.8147 N   0  0  0  0  0  0  0  0  0  0  0  0
    2.3730   28.3282   -5.9990 C   0  0  0  0  0  0  0  0  0  0  0  0
    3.0010   27.9194   -4.7806 N   0  0  0  0  0  0  0  0  0  0  0  0
    3.9236   28.7992   -4.1467 C   0  0  0  0  0  0  0  0  0  0  0  0
    3.9879   28.7272   -2.6110 C   0  0  0  0  0  0  0  0  0  0  0  0
    3.3960   29.9567   -2.1261 C   0  0  0  0  0  0  0  0  0  0  0  0
    2.8382   31.0670   -1.6950 C   0  0  0  0  0  0  0  0  0  0  0  0
    2.2534   32.2838   -1.2171 C   0  0  0  0  0  0  0  0  0  0  0  0
    1.3355   31.9178   -0.1957 O   0  0  0  0  0  0  0  0  0  0  0  0
    2.5499   29.5848   -6.4299 N   0  0  0  0  0  0  0  0  0  0  0  0
    2.0807   30.0264   -7.5457 C   0  0  0  0  0  0  0  0  0  0  0  0
    2.2429   31.3620   -7.9852 N   0  0  0  0  0  0  0  0  0  0  0  0
    3.1549   32.2300   -7.2842 C   0  0  0  0  0  0  0  0  0  0  0  0
    3.0609   31.9759   -5.7825 C   0  0  0  0  0  0  0  0  0  0  0  0
    2.8550   33.6472   -7.6165 C   0  0  0  0  0  0  0  0  0  0  0  0
    4.5784   31.8287   -7.6711 C   0  0  0  0  0  0  0  0  0  0  0  0
    1.3242   29.1863   -8.3987 N   0  0  0  0  0  0  0  0  0  0  0  0
  1  2  1  0
  2  3  1  0
  3  4  1  0
  4  5  2  0
  5  6  1  0
  6  7  1  0
  7  8  1  0
  8  9  1  0
  9 10  1  0
 10 11  3  0
 11 12  1  0
 12 13  1  0
  6 14  2  0
 14 15  1  0
 15 16  1  0
 16 17  1  0
 17 18  1  0
 17 19  1  0
 17 20  1  0
 15 21  2  0
 21  4  1  0
M  END
$$$$
