
     RDKit          3D

 21 21  0  0  0  0  0  0  0  0999 V2000
    1.9477   -5.1011  -54.9255 C   0  0  0  0  0  0  0  0  0  0  0  0
    1.5414   -5.3158  -56.3886 C   0  0  0  0  0  0  0  0  0  0  0  0
    0.1643   -4.9771  -56.5799 N   0  0  0  0  0  0  0  0  0  0  0  0
   -0.6479   -5.3171  -57.6864 C   0  0  0  0  0  0  0  0  0  0  0  0
   -1.9374   -4.9975  -57.7212 N   0  0  0  0  0  0  0  0  0  0  0  0
   -2.7757   -5.2700  -58.7492 C   0  0  0  0  0  0  0  0  0  0  0  0
   -4.1460   -4.8676  -58.8291 N   0  0  0  0  0  0  0  0  0  0  0  0
   -4.9724   -5.4188  -59.8490 C   0  0  0  0  0  0  0  0  0  0  0  0
   -6.0305   -4.4777  -60.4510 C   0  0  0  0  0  0  0  0  0  0  0  0
   -7.1028   -4.4057  -59.4804 C   0  0  0  0  0  0  0  0  0  0  0  0
   -8.0724   -4.3622  -58.5928 C   0  0  0  0  0  0  0  0  0  0  0  0
   -9.1334   -4.2911  -57.6335 C   0  0  0  0  0  0  0  0  0  0  0  0
   -9.5014   -2.9218  -57.5378 O   0  0  0  0  0  0  0  0  0  0  0  0
   -2.2278   -5.9157  -59.7880 N   0  0  0  0  0  0  0  0  0  0  0  0
   -0.9871   -6.2595  -59.8370 C   0  0  0  0  0  0  0  0  0  0  0  0
   -0.4169   -6.9678  -60.9216 N   0  0  0  0  0  0  0  0  0  0  0  0
   -1.2167   -7.2312  -62.0911 C   0  0  0  0  0  0  0  0  0  0  0  0
   -1.5567   -5.9192  -62.7922 C   0  0  0  0  0  0  0  0  0  0  0  0
   -2.4434   -7.9753  -61.7035 C   0  0  0  0  0  0  0  0  0  0  0  0
   -0.3540   -8.0068  -63.0867 C   0  0  0  0  0  0  0  0  0  0  0  0
   -0.1109   -5.9726  -58.7619 N   0  0  0  0  0  0  0  0  0  0  0  0
  1  2  1  0
  2  3  1  0
  3  4  1  0
  4  5  2  0
  5  6  1  0
  6  7  1  0
  7  8  1  0
  8  9  1  0
  9 10  1  0
 10 11  3  0
 11 12  1  0
 12 13  1  0
  6 14  2  0
 14 15  1  0
 15 16  1  0
 16 17  1  0
 17 18  1  0
 17 19  1  0
 17 20  1  0
 15 21  2  0
 21  4  1  0
M  END
$$$$
