
     RDKit          3D

 22 23  0  0  0  0  0  0  0  0999 V2000
   -9.3435   -6.1615  -56.6224 C   0  0  0  0  0  0  0  0  0  0  0  0
   -7.8671   -6.0185  -56.7382 C   0  0  0  0  0  0  0  0  0  0  0  0
   -7.3881   -5.1757  -57.7811 N   0  0  0  0  0  4  0  0  0  0  0  0
   -7.9686   -3.8373  -57.5833 C   0  0  0  0  0  0  0  0  0  0  0  0
   -7.6089   -2.8897  -58.6812 C   0  0  0  0  0  0  0  0  0  0  0  0
   -5.9695   -5.1027  -57.9233 C   0  0  0  0  0  0  0  0  0  0  0  0
   -5.4282   -6.4215  -58.4568 C   0  0  0  0  0  0  0  0  0  0  0  0
   -3.7007   -6.6617  -58.0275 S   0  0  0  0  0  0  0  0  0  0  0  0
   -3.6597   -7.3087  -56.3113 C   0  0  0  0  0  0  0  0  0  0  0  0
   -2.2391   -7.3292  -55.8545 C   0  0  0  0  0  0  0  0  0  0  0  0
   -1.2914   -7.0874  -56.9272 N   0  0  0  0  0  0  0  0  0  0  0  0
   -0.3337   -6.0610  -56.9388 C   0  0  0  0  0  0  0  0  0  0  0  0
    0.2199   -5.5659  -55.7629 C   0  0  0  0  0  0  0  0  0  0  0  0
    1.1476   -4.5319  -55.7561 C   0  0  0  0  0  0  0  0  0  0  0  0
    1.4942   -4.0206  -56.9440 N   0  0  0  0  0  0  0  0  0  0  0  0
    1.0062   -4.4408  -58.1258 C   0  0  0  0  0  0  0  0  0  0  0  0
    1.4056   -3.8717  -59.3155 C   0  0  0  0  0  0  0  0  0  0  0  0
    0.9152   -4.2928  -60.5324 C   0  0  0  0  0  0  0  0  0  0  0  0
    1.4570   -3.5321  -62.0277 Cl  0  0  0  0  0  0  0  0  0  0  0  0
   -0.0041   -5.3156  -60.5670 C   0  0  0  0  0  0  0  0  0  0  0  0
   -0.4051   -5.8886  -59.3564 C   0  0  0  0  0  0  0  0  0  0  0  0
    0.0696   -5.4857  -58.1299 C   0  0  0  0  0  0  0  0  0  0  0  0
  1  2  1  0
  2  3  1  0
  3  4  1  0
  4  5  1  0
  3  6  1  0
  6  7  1  0
  7  8  1  0
  8  9  1  0
  9 10  1  0
 10 11  1  0
 11 12  1  0
 12 13  2  0
 13 14  1  0
 14 15  2  0
 15 16  1  0
 16 17  2  0
 17 18  1  0
 18 19  1  0
 18 20  2  0
 20 21  1  0
 21 22  2  0
 22 12  1  0
 22 16  1  0
M  CHG  1   3   1
M  END
$$$$
