
     RDKit          3D

 19 18  0  0  0  0  0  0  0  0999 V2000
  148.4720  144.4395  146.7193 C   0  0  0  0  0  0  0  0  0  0  0  0
  148.0353  145.6195  146.3528 C   0  0  0  0  0  0  0  0  0  0  0  0
  148.8764  146.5402  145.6315 C   0  0  0  0  0  0  0  0  0  0  0  0
  148.4404  147.6452  145.1697 O   0  0  0  0  0  0  0  0  0  0  0  0
  150.2468  146.2822  145.3847 N   0  0  0  0  0  0  0  0  0  0  0  0
  151.0682  147.2289  144.6229 C   0  0  0  0  0  0  0  0  0  0  0  0
  151.4721  148.3178  145.5335 C   0  0  0  0  0  0  0  0  0  0  0  0
  152.5874  149.0140  145.4061 C   0  0  0  0  0  0  0  0  0  0  0  0
  153.7090  148.4963  144.5842 C   0  0  0  0  0  0  0  0  0  0  0  0
  152.6935  150.3192  146.0999 C   0  0  0  0  0  0  0  0  0  0  0  0
  154.0475  150.3093  146.8214 C   0  0  0  0  0  0  0  0  0  0  0  0
  154.9825  151.1418  146.0670 C   0  0  0  0  0  0  0  0  0  0  0  0
  155.9936  151.7259  146.6695 C   0  0  0  0  0  0  0  0  0  0  0  0
  157.0307  152.4032  145.8679 C   0  0  0  0  0  0  0  0  0  0  0  0
  156.1235  151.7236  148.1485 C   0  0  0  0  0  0  0  0  0  0  0  0
  146.6414  146.0689  146.6653 C   0  0  0  0  0  0  0  0  0  0  0  0
  146.2201  145.3472  147.7607 F   0  0  0  0  0  0  0  0  0  0  0  0
  146.6754  147.4293  146.9389 F   0  0  0  0  0  0  0  0  0  0  0  0
  145.7912  145.8028  145.6112 F   0  0  0  0  0  0  0  0  0  0  0  0
  1  2  2  0
  2  3  1  0
  3  4  2  0
  3  5  1  0
  5  6  1  0
  6  7  1  0
  7  8  2  0
  8  9  1  0
  8 10  1  0
 10 11  1  0
 11 12  1  0
 12 13  2  3
 13 14  1  0
 13 15  1  0
  2 16  1  0
 16 17  1  0
 16 18  1  0
 16 19  1  0
M  END
$$$$
