
     RDKit          3D

 19 18  0  0  0  0  0  0  0  0999 V2000
  152.9644  146.7690  139.1903 C   0  0  0  0  0  0  0  0  0  0  0  0
  151.7784  147.1639  139.5836 C   0  0  0  0  0  0  0  0  0  0  0  0
  151.6088  147.9648  140.7690 C   0  0  0  0  0  0  0  0  0  0  0  0
  150.4779  148.4377  141.1177 O   0  0  0  0  0  0  0  0  0  0  0  0
  152.6870  148.2829  141.6303 N   0  0  0  0  0  0  0  0  0  0  0  0
  152.4712  149.0614  142.8546 C   0  0  0  0  0  0  0  0  0  0  0  0
  153.7923  149.4323  143.3978 C   0  0  0  0  0  0  0  0  0  0  0  0
  153.9739  150.0162  144.5686 C   0  0  0  0  0  0  0  0  0  0  0  0
  152.8392  150.1876  145.5092 C   0  0  0  0  0  0  0  0  0  0  0  0
  155.3314  150.4949  144.9211 C   0  0  0  0  0  0  0  0  0  0  0  0
  155.1696  151.3351  146.1945 C   0  0  0  0  0  0  0  0  0  0  0  0
  156.4770  151.8728  146.5662 C   0  0  0  0  0  0  0  0  0  0  0  0
  156.5991  152.6835  147.5930 C   0  0  0  0  0  0  0  0  0  0  0  0
  157.9329  153.1867  147.9733 C   0  0  0  0  0  0  0  0  0  0  0  0
  155.4215  153.1118  148.3893 C   0  0  0  0  0  0  0  0  0  0  0  0
  150.5413  146.8026  138.8208 C   0  0  0  0  0  0  0  0  0  0  0  0
  150.8203  146.9926  137.4850 F   0  0  0  0  0  0  0  0  0  0  0  0
  150.2379  145.4751  139.0899 F   0  0  0  0  0  0  0  0  0  0  0  0
  149.4901  147.6255  139.1707 F   0  0  0  0  0  0  0  0  0  0  0  0
  1  2  2  0
  2  3  1  0
  3  4  2  0
  3  5  1  0
  5  6  1  0
  6  7  1  0
  7  8  2  0
  8  9  1  0
  8 10  1  0
 10 11  1  0
 11 12  1  0
 12 13  2  3
 13 14  1  0
 13 15  1  0
  2 16  1  0
 16 17  1  0
 16 18  1  0
 16 19  1  0
M  END
$$$$
