
     RDKit          3D

 17 17  0  0  0  0  0  0  0  0999 V2000
  156.6064  153.4816  146.3861 C   0  0  0  0  0  0  0  0  0  0  0  0
  156.9397  152.9514  147.7947 C   0  0  0  0  0  0  0  0  0  0  0  0
  156.4081  151.5562  147.8737 C   0  0  0  0  0  0  0  0  0  0  0  0
  158.4460  153.0104  147.9770 C   0  0  0  0  0  0  0  0  0  0  0  0
  156.3292  153.8198  148.6926 O   0  0  0  0  0  0  0  0  0  0  0  0
  155.0161  153.9566  148.8772 N   0  0  0  0  0  0  0  0  0  0  0  0
  154.4883  154.8245  149.6395 C   0  0  0  0  0  0  0  0  0  0  0  0
  153.1286  154.5854  150.1746 C   0  0  0  0  0  0  0  0  0  0  0  0
  152.1357  154.0719  149.3676 C   0  0  0  0  0  0  0  0  0  0  0  0
  150.8639  153.8475  149.8655 C   0  0  0  0  0  0  0  0  0  0  0  0
  150.5686  154.1370  151.1883 C   0  0  0  0  0  0  0  0  0  0  0  0
  149.3057  153.9258  151.7237 O   0  0  0  0  0  0  0  0  0  0  0  0
  151.5503  154.6482  151.9984 C   0  0  0  0  0  0  0  0  0  0  0  0
  151.2978  154.9719  153.3986 C   0  0  0  0  0  0  0  0  0  0  0  0
  150.2153  154.6904  153.9618 O   0  0  0  0  0  0  0  0  0  0  0  0
  152.3200  155.6204  154.1137 O   0  0  0  0  0  0  0  0  0  0  0  0
  152.8083  154.8615  151.4751 C   0  0  0  0  0  0  0  0  0  0  0  0
  1  2  1  0
  2  3  1  0
  2  4  1  0
  2  5  1  0
  5  6  1  0
  6  7  2  3
  7  8  1  0
  8  9  2  0
  9 10  1  0
 10 11  2  0
 11 12  1  0
 11 13  1  0
 13 14  1  0
 14 15  2  0
 14 16  1  0
 13 17  2  0
 17  8  1  0
M  END
$$$$
