
     RDKit          3D

 26 27  0  0  0  0  0  0  0  0999 V2000
    6.4352   27.8327   -8.3487 C   0  0  0  0  0  0  0  0  0  0  0  0
    6.2792   28.5607   -6.9730 C   0  0  0  0  0  0  0  0  0  0  0  0
    7.6103   28.7286   -6.5041 N   0  0  0  0  0  0  0  0  0  0  0  0
    8.3261   29.9335   -6.6312 C   0  0  0  0  0  0  0  0  0  0  0  0
    8.9355   30.2346   -7.9744 C   0  0  0  0  0  0  0  0  0  0  0  0
    9.8991   31.2871   -8.0032 C   0  0  0  0  0  0  0  0  0  0  0  0
   10.7283   32.1739   -8.0372 N   0  0  0  0  0  0  0  0  0  0  0  0
    7.4101   28.4925   -5.0190 C   0  0  0  0  0  0  0  0  0  0  0  0
    6.1188   29.0957   -4.5596 C   0  0  0  0  0  0  0  0  0  0  0  0
    5.4388   28.3369   -3.7774 O   0  0  0  0  0  0  0  0  0  0  0  0
    5.5893   30.3254   -4.8555 N   0  0  0  0  0  0  0  0  0  0  0  0
    4.6695   30.9412   -3.9160 C   0  0  0  0  0  0  0  0  0  0  0  0
    5.2102   31.5323   -2.7808 C   0  0  0  0  0  0  0  0  0  0  0  0
    4.3626   32.1838   -1.8540 C   0  0  0  0  0  0  0  0  0  0  0  0
    3.0405   32.2166   -2.0962 C   0  0  0  0  0  0  0  0  0  0  0  0
    2.4985   31.6267   -3.2380 C   0  0  0  0  0  0  0  0  0  0  0  0
    3.3231   30.9803   -4.1591 C   0  0  0  0  0  0  0  0  0  0  0  0
    2.7879   30.3233   -5.3365 C   0  0  0  0  0  0  0  0  0  0  0  0
    2.2354   30.8892   -6.2794 O   0  0  0  0  0  0  0  0  0  0  0  0
    2.8714   28.8856   -5.4862 N   0  0  0  0  0  0  0  0  0  0  0  0
    2.2507   28.1241   -6.4870 C   0  0  0  0  0  0  0  0  0  0  0  0
    2.3112   26.7664   -6.6779 C   0  0  0  0  0  0  0  0  0  0  0  0
    1.6919   26.0779   -7.7255 C   0  0  0  0  0  0  0  0  0  0  0  0
    0.9618   26.7876   -8.6524 C   0  0  0  0  0  0  0  0  0  0  0  0
    0.8697   28.1517   -8.5056 C   0  0  0  0  0  0  0  0  0  0  0  0
    1.4882   28.8198   -7.4593 C   0  0  0  0  0  0  0  0  0  0  0  0
  1  2  1  0
  2  3  1  0
  3  4  1  0
  4  5  1  0
  5  6  1  0
  6  7  3  0
  3  8  1  0
  8  9  1  0
  9 10  2  0
  9 11  1  0
 11 12  1  0
 12 13  2  0
 13 14  1  0
 14 15  2  0
 15 16  1  0
 16 17  2  0
 17 18  1  0
 18 19  2  0
 18 20  1  0
 20 21  1  0
 21 22  2  0
 22 23  1  0
 23 24  2  0
 24 25  1  0
 25 26  2  0
 17 12  1  0
 26 21  1  0
M  END
$$$$
