
     RDKit          3D

 40 44  0  0  0  0  0  0  0  0999 V2000
  168.8058  136.6611  161.6395 C   0  0  0  0  0  0  0  0  0  0  0  0
  168.5505  136.9019  160.2713 O   0  0  0  0  0  0  0  0  0  0  0  0
  169.5002  137.3381  159.3696 C   0  0  0  0  0  0  0  0  0  0  0  0
  170.5822  136.7226  159.2888 O   0  0  0  0  0  0  0  0  0  0  0  0
  169.2728  138.4912  158.5155 C   0  0  0  0  0  0  0  0  0  0  0  0
  170.0960  138.7437  157.4380 C   0  0  0  0  0  0  0  0  0  0  0  0
  169.8706  139.8569  156.6194 C   0  0  0  0  0  0  0  0  0  0  0  0
  168.8369  140.7279  156.8534 C   0  0  0  0  0  0  0  0  0  0  0  0
  168.6677  141.8815  155.9393 C   0  0  0  0  0  0  0  0  0  0  0  0
  169.8010  142.8025  155.9798 C   0  0  0  0  0  0  0  0  0  0  0  0
  170.3927  143.2480  154.9139 C   0  0  0  0  0  0  0  0  0  0  0  0
  171.5461  144.1896  155.0526 C   0  0  0  0  0  0  0  0  0  0  0  0
  172.4959  143.8013  156.1567 C   0  0  0  0  0  0  0  0  0  0  0  0
  173.3015  142.6090  155.6900 C   0  0  0  0  0  0  0  0  0  0  0  0
  173.4554  144.9531  156.3600 C   0  0  0  0  0  0  0  0  0  0  0  0
  171.7736  143.5485  157.4590 C   0  0  0  0  0  0  0  0  0  0  0  0
  170.3479  143.2825  157.2673 C   0  0  0  0  0  0  0  0  0  0  0  0
  169.5594  143.4647  158.2213 O   0  0  0  0  0  0  0  0  0  0  0  0
  169.9727  142.8640  153.5994 N   0  0  0  0  0  0  0  0  0  0  0  0
  170.6580  143.3838  152.4829 C   0  0  0  0  0  0  0  0  0  0  0  0
  170.2611  144.5647  151.9097 C   0  0  0  0  0  0  0  0  0  0  0  0
  170.9543  145.0315  150.8288 C   0  0  0  0  0  0  0  0  0  0  0  0
  172.0368  144.3048  150.3389 C   0  0  0  0  0  0  0  0  0  0  0  0
  172.7156  144.7935  149.2544 O   0  0  0  0  0  0  0  0  0  0  0  0
  172.2874  145.9724  148.6045 C   0  0  0  0  0  0  0  0  0  0  0  0
  172.4290  143.1209  150.9192 C   0  0  0  0  0  0  0  0  0  0  0  0
  171.7379  142.6389  152.0106 C   0  0  0  0  0  0  0  0  0  0  0  0
  172.1029  141.4516  152.6210 O   0  0  0  0  0  0  0  0  0  0  0  0
  173.1182  140.6131  152.1648 C   0  0  0  0  0  0  0  0  0  0  0  0
  168.8773  141.9727  153.5343 C   0  0  0  0  0  0  0  0  0  0  0  0
  168.2699  141.5146  154.5988 C   0  0  0  0  0  0  0  0  0  0  0  0
  167.1386  140.5894  154.3617 C   0  0  0  0  0  0  0  0  0  0  0  0
  166.3149  140.3230  155.2756 O   0  0  0  0  0  0  0  0  0  0  0  0
  166.9097  139.9288  153.0509 C   0  0  0  0  0  0  0  0  0  0  0  0
  168.0255  140.1395  152.0816 C   0  0  0  0  0  0  0  0  0  0  0  0
  169.1697  139.1792  152.2563 C   0  0  0  0  0  0  0  0  0  0  0  0
  167.4742  139.9194  150.6767 C   0  0  0  0  0  0  0  0  0  0  0  0
  168.4545  141.5844  152.1500 C   0  0  0  0  0  0  0  0  0  0  0  0
  168.0148  140.4822  157.9234 C   0  0  0  0  0  0  0  0  0  0  0  0
  168.2433  139.3841  158.7244 C   0  0  0  0  0  0  0  0  0  0  0  0
  1  2  1  0
  2  3  1  0
  3  4  2  0
  3  5  1  0
  5  6  2  0
  6  7  1  0
  7  8  2  0
  8  9  1  0
  9 10  1  0
 10 11  2  0
 11 12  1  0
 12 13  1  0
 13 14  1  0
 13 15  1  0
 13 16  1  0
 16 17  1  0
 17 18  2  0
 11 19  1  0
 19 20  1  0
 20 21  2  0
 21 22  1  0
 22 23  2  0
 23 24  1  0
 24 25  1  0
 23 26  1  0
 26 27  2  0
 27 28  1  0
 28 29  1  0
 19 30  1  0
 30 31  2  0
 31 32  1  0
 32 33  2  0
 32 34  1  0
 34 35  1  0
 35 36  1  0
 35 37  1  0
 35 38  1  0
  8 39  1  0
 39 40  2  0
 40  5  1  0
 31  9  1  0
 17 10  1  0
 27 20  1  0
 38 30  1  0
M  END
$$$$
