
     RDKit          3D

 40 44  0  0  0  0  0  0  0  0999 V2000
  173.1727  147.6525  164.0181 C   0  0  0  0  0  0  0  0  0  0  0  0
  172.8602  147.5074  162.6483 O   0  0  0  0  0  0  0  0  0  0  0  0
  171.7002  146.9292  162.1738 C   0  0  0  0  0  0  0  0  0  0  0  0
  170.6070  147.2886  162.6551 O   0  0  0  0  0  0  0  0  0  0  0  0
  171.7197  145.9166  161.1321 C   0  0  0  0  0  0  0  0  0  0  0  0
  172.9105  145.3651  160.7074 C   0  0  0  0  0  0  0  0  0  0  0  0
  172.9215  144.3898  159.7030 C   0  0  0  0  0  0  0  0  0  0  0  0
  171.7649  143.9504  159.1104 C   0  0  0  0  0  0  0  0  0  0  0  0
  171.8639  142.9152  158.0551 C   0  0  0  0  0  0  0  0  0  0  0  0
  170.9948  141.7686  158.3083 C   0  0  0  0  0  0  0  0  0  0  0  0
  170.2024  141.2661  157.4114 C   0  0  0  0  0  0  0  0  0  0  0  0
  169.3484  140.0895  157.7612 C   0  0  0  0  0  0  0  0  0  0  0  0
  168.7251  140.1982  159.1293 C   0  0  0  0  0  0  0  0  0  0  0  0
  167.6035  141.2108  159.0590 C   0  0  0  0  0  0  0  0  0  0  0  0
  168.1119  138.8553  159.4598 C   0  0  0  0  0  0  0  0  0  0  0  0
  169.7483  140.5279  160.1905 C   0  0  0  0  0  0  0  0  0  0  0  0
  170.9691  141.1087  159.6315 C   0  0  0  0  0  0  0  0  0  0  0  0
  172.0307  141.0488  160.2907 O   0  0  0  0  0  0  0  0  0  0  0  0
  170.1198  141.8065  156.0874 N   0  0  0  0  0  0  0  0  0  0  0  0
  169.2389  141.2141  155.1603 C   0  0  0  0  0  0  0  0  0  0  0  0
  169.6214  140.1093  154.4436 C   0  0  0  0  0  0  0  0  0  0  0  0
  168.7354  139.5677  153.5557 C   0  0  0  0  0  0  0  0  0  0  0  0
  167.4771  140.1443  153.4003 C   0  0  0  0  0  0  0  0  0  0  0  0
  166.6068  139.5831  152.5040 O   0  0  0  0  0  0  0  0  0  0  0  0
  165.6059  138.6836  152.9341 C   0  0  0  0  0  0  0  0  0  0  0  0
  167.1005  141.2525  154.1226 C   0  0  0  0  0  0  0  0  0  0  0  0
  167.9853  141.8087  155.0220 C   0  0  0  0  0  0  0  0  0  0  0  0
  167.6421  142.9237  155.7667 O   0  0  0  0  0  0  0  0  0  0  0  0
  166.3642  143.4782  155.8082 C   0  0  0  0  0  0  0  0  0  0  0  0
  170.9517  142.9173  155.8181 C   0  0  0  0  0  0  0  0  0  0  0  0
  171.7559  143.4355  156.7107 C   0  0  0  0  0  0  0  0  0  0  0  0
  172.5624  144.5969  156.2718 C   0  0  0  0  0  0  0  0  0  0  0  0
  173.5589  144.9841  156.9363 O   0  0  0  0  0  0  0  0  0  0  0  0
  172.2497  145.3649  155.0390 C   0  0  0  0  0  0  0  0  0  0  0  0
  170.9532  144.9715  154.4122 C   0  0  0  0  0  0  0  0  0  0  0  0
  169.7557  145.6478  155.0209 C   0  0  0  0  0  0  0  0  0  0  0  0
  170.9967  145.3859  152.9450 C   0  0  0  0  0  0  0  0  0  0  0  0
  170.8496  143.4663  154.4275 C   0  0  0  0  0  0  0  0  0  0  0  0
  170.5777  144.4950  159.5285 C   0  0  0  0  0  0  0  0  0  0  0  0
  170.5753  145.4547  160.5177 C   0  0  0  0  0  0  0  0  0  0  0  0
  1  2  1  0
  2  3  1  0
  3  4  2  0
  3  5  1  0
  5  6  2  0
  6  7  1  0
  7  8  2  0
  8  9  1  0
  9 10  1  0
 10 11  2  0
 11 12  1  0
 12 13  1  0
 13 14  1  0
 13 15  1  0
 13 16  1  0
 16 17  1  0
 17 18  2  0
 11 19  1  0
 19 20  1  0
 20 21  2  0
 21 22  1  0
 22 23  2  0
 23 24  1  0
 24 25  1  0
 23 26  1  0
 26 27  2  0
 27 28  1  0
 28 29  1  0
 19 30  1  0
 30 31  2  0
 31 32  1  0
 32 33  2  0
 32 34  1  0
 34 35  1  0
 35 36  1  0
 35 37  1  0
 35 38  1  0
  8 39  1  0
 39 40  2  0
 40  5  1  0
 31  9  1  0
 17 10  1  0
 27 20  1  0
 38 30  1  0
M  END
$$$$
