
     RDKit          3D

 25 26  0  0  0  0  0  0  0  0999 V2000
  155.8356  155.1180  151.6161 C   0  0  0  0  0  0  0  0  0  0  0  0
  154.7964  154.8254  150.7083 O   0  0  0  0  0  0  0  0  0  0  0  0
  155.0507  154.1055  149.5382 C   0  0  0  0  0  0  0  0  0  0  0  0
  156.3234  153.6438  149.2909 C   0  0  0  0  0  0  0  0  0  0  0  0
  156.6509  152.9108  148.1325 C   0  0  0  0  0  0  0  0  0  0  0  0
  158.0296  152.4240  147.9236 C   0  0  0  0  0  0  0  0  0  0  0  0
  155.6768  152.6469  147.2188 C   0  0  0  0  0  0  0  0  0  0  0  0
  155.8767  151.8963  146.0004 C   0  0  2  0  0  0  0  0  0  0  0  0
  156.7747  152.7216  145.0568 C   0  0  0  0  0  0  0  0  0  0  0  0
  154.7740  151.3303  145.3282 N   0  0  0  0  0  0  0  0  0  0  0  0
  154.0818  150.2075  145.8516 C   0  0  0  0  0  0  0  0  0  0  0  0
  154.5008  149.7368  146.9406 O   0  0  0  0  0  0  0  0  0  0  0  0
  152.9346  149.6009  145.1792 C   0  0  0  0  0  0  0  0  0  0  0  0
  152.4547  150.0004  143.9786 C   0  0  0  0  0  0  0  0  0  0  0  0
  151.3652  149.3805  143.3553 C   0  0  0  0  0  0  0  0  0  0  0  0
  150.7596  148.3285  143.9825 C   0  0  0  0  0  0  0  0  0  0  0  0
  149.5920  147.6531  143.3305 C   0  0  0  0  0  0  0  0  0  0  0  0
  150.0392  147.1117  141.9874 C   0  0  0  0  0  0  0  0  0  0  0  0
  149.0473  147.5081  140.9879 N   0  0  0  0  0  4  0  0  0  0  0  0
  151.2173  147.8765  145.2260 C   0  0  0  0  0  0  0  0  0  0  0  0
  152.3003  148.5299  145.7961 C   0  0  0  0  0  0  0  0  0  0  0  0
  154.3777  153.1257  147.4832 C   0  0  0  0  0  0  0  0  0  0  0  0
  154.0644  153.8408  148.6176 C   0  0  0  0  0  0  0  0  0  0  0  0
  152.7644  154.2838  148.8166 O   0  0  0  0  0  0  0  0  0  0  0  0
  151.7116  153.9918  147.9238 C   0  0  0  0  0  0  0  0  0  0  0  0
  1  2  1  0
  2  3  1  0
  3  4  2  0
  4  5  1  0
  5  6  1  0
  5  7  2  0
  7  8  1  0
  8  9  1  6
  8 10  1  0
 10 11  1  0
 11 12  2  0
 11 13  1  0
 13 14  2  0
 14 15  1  0
 15 16  2  0
 16 17  1  0
 17 18  1  0
 18 19  1  0
 16 20  1  0
 20 21  2  0
  7 22  1  0
 22 23  2  0
 23 24  1  0
 24 25  1  0
 23  3  1  0
 21 13  1  0
M  CHG  1  19   1
M  END
$$$$
