
     RDKit          3D

 24 24  0  0  0  0  0  0  0  0999 V2000
   45.8377   43.1926   27.7226 C   0  0  0  0  0  0  0  0  0  0  0  0
   45.3480   44.5048   27.3407 N   0  0  0  0  0  3  0  0  0  0  0  0
   44.9766   44.6835   26.1361 C   0  0  0  0  0  0  0  0  0  0  0  0
   44.6121   45.1573   24.9547 C   0  0  0  0  0  0  0  0  0  0  0  0
   43.7215   46.2834   24.9475 C   0  0  0  0  0  0  0  0  0  0  0  0
   43.1232   46.7416   23.8492 C   0  0  0  0  0  0  0  0  0  0  0  0
   43.5490   46.1904   22.5523 C   0  0  0  0  0  0  0  0  0  0  0  0
   42.8343   46.7548   21.3992 C   0  0  0  0  0  0  0  0  0  0  0  0
   43.1470   46.3122   20.0865 N   0  0  0  0  0  0  0  0  0  0  0  0
   43.8361   45.0659   19.8230 C   0  0  0  0  0  0  0  0  0  0  0  0
   43.4024   44.4550   18.5201 C   0  0  0  0  0  0  0  0  0  0  0  0
   42.1140   43.9383   18.6333 O   0  0  0  0  0  0  0  0  0  0  0  0
   41.9315   47.6433   21.5647 N   0  0  0  0  0  0  0  0  0  0  0  0
   41.5446   48.1539   22.8325 C   0  0  0  0  0  0  0  0  0  0  0  0
   40.5319   49.1453   22.9793 N   0  0  0  0  0  0  0  0  0  0  0  0
   39.6033   49.2839   21.9122 C   0  0  0  0  0  0  0  0  0  0  0  0
   40.0896   49.9579   20.6809 C   0  0  0  0  0  0  0  0  0  0  0  0
   38.3710   48.8600   21.9531 C   0  0  0  0  0  0  0  0  0  0  0  0
   37.4985   49.1973   23.0517 C   0  0  0  0  0  0  0  0  0  0  0  0
   36.8407   48.3605   23.8172 C   0  0  0  0  0  0  0  0  0  0  0  0
   36.5460   48.8018   25.4802 Cl  0  0  0  0  0  0  0  0  0  0  0  0
   36.3464   47.0708   23.3216 C   0  0  0  0  0  0  0  0  0  0  0  0
   34.6949   46.7940   23.9795 Cl  0  0  0  0  0  0  0  0  0  0  0  0
   42.1097   47.7244   23.8980 N   0  0  0  0  0  0  0  0  0  0  0  0
  1  2  1  0
  2  3  2  0
  3  4  2  0
  4  5  1  0
  5  6  2  3
  6  7  1  0
  7  8  1  0
  8  9  1  0
  9 10  1  0
 10 11  1  0
 11 12  1  0
  8 13  2  0
 13 14  1  0
 14 15  1  0
 15 16  1  0
 16 17  1  0
 16 18  2  3
 18 19  1  0
 19 20  2  3
 20 21  1  0
 20 22  1  0
 22 23  1  0
 14 24  2  0
 24  6  1  0
M  CHG  1   2   1
M  RAD  1   2   2
M  END
$$$$
