
     RDKit          3D

 11 10  0  0  0  0  0  0  0  0999 V2000
    6.6341   32.2563   21.2362 N   0  0  0  0  0  0  0  0  0  0  0  0
    7.4160   31.0637   21.4121 C   0  0  0  0  0  0  0  0  0  0  0  0
    8.4211   31.1983   22.5446 C   0  0  0  0  0  2  0  0  0  0  0  0
    7.6076   31.4706   23.8028 C   0  0  0  0  0  0  0  0  0  0  0  0
    8.8604   32.0273   25.1644 Br  0  0  0  0  0  0  0  0  0  0  0  0
    8.1828   30.8178   20.2033 N   0  0  0  0  0  0  0  0  0  0  0  0
    8.7232   29.6641   20.0752 C   0  0  0  0  0  0  0  0  0  0  0  0
    9.9323   29.6060   19.2889 N   0  0  0  0  0  0  0  0  0  0  0  0
   10.4869   28.2893   19.0513 C   0  0  0  0  0  0  0  0  0  0  0  0
   12.0181   28.5257   18.0230 P   0  0  0  0  0  3  0  0  0  0  0  0
   12.7730   29.8872   18.1435 O   0  0  0  0  0  0  0  0  0  0  0  0
  1  2  1  0
  2  3  1  0
  3  4  1  0
  4  5  1  0
  2  6  1  0
  6  7  2  3
  7  8  1  0
  8  9  1  0
  9 10  1  0
 10 11  2  0
M  CHG  2   3  -1  10  -1
M  RAD  2   3   2  10   2
M  END
$$$$
