
     RDKit          3D

 22 24  0  0  0  0  0  0  0  0999 V2000
  157.3776  151.5470  147.5107 C   0  0  0  0  0  0  0  0  0  0  0  0
  157.4134  151.0582  146.1845 O   0  0  0  0  0  0  0  0  0  0  0  0
  156.4164  151.7836  145.5261 C   0  0  0  0  0  0  0  0  0  0  0  0
  155.1136  151.8343  146.2850 C   0  0  0  0  0  0  0  0  0  0  0  0
  153.8890  151.8696  145.4324 C   0  0  0  0  0  0  0  0  0  0  0  0
  153.6430  153.2099  144.9271 N   0  0  0  0  0  0  0  0  0  0  0  0
  152.8844  153.4125  143.7637 C   0  0  0  0  0  0  0  0  0  0  0  0
  152.0992  154.4310  143.7482 O   0  0  0  0  0  0  0  0  0  0  0  0
  152.8498  152.6164  142.5430 C   0  0  0  0  0  0  0  0  0  0  0  0
  152.5950  152.9466  141.2581 C   0  0  0  0  0  0  0  0  0  0  0  0
  152.1458  154.8159  140.8451 Br  0  0  0  0  0  0  0  0  0  0  0  0
  152.6084  152.0000  140.3056 C   0  0  0  0  0  0  0  0  0  0  0  0
  152.3739  152.1039  138.9390 C   0  0  0  0  0  0  0  0  0  0  0  0
  152.4142  151.0492  138.0617 C   0  0  0  0  0  0  0  0  0  0  0  0
  152.7010  149.7858  138.5085 C   0  0  0  0  0  0  0  0  0  0  0  0
  152.9446  149.6297  139.8664 C   0  0  0  0  0  0  0  0  0  0  0  0
  152.8983  150.7060  140.7345 C   0  0  0  0  0  0  0  0  0  0  0  0
  153.1270  150.9042  142.4141 S   0  0  0  0  0  0  0  0  0  0  0  0
  154.2162  154.3111  145.6626 C   0  0  0  0  0  0  0  0  0  0  0  0
  154.3683  153.9031  147.0854 C   0  0  0  0  0  0  0  0  0  0  0  0
  153.0383  153.8151  147.7585 C   0  0  0  0  0  0  0  0  0  0  0  0
  155.2011  152.8131  147.2512 O   0  0  0  0  0  0  0  0  0  0  0  0
  1  2  1  0
  2  3  1  0
  3  4  1  0
  4  5  1  0
  5  6  1  0
  6  7  1  0
  7  8  2  0
  7  9  1  0
  9 10  2  0
 10 11  1  0
 10 12  1  0
 12 13  2  0
 13 14  1  0
 14 15  2  0
 15 16  1  0
 16 17  2  0
 17 18  1  0
  6 19  1  0
 19 20  1  0
 20 21  1  0
 20 22  1  0
 22  4  1  0
 18  9  1  0
 17 12  1  0
M  END
$$$$
