
     RDKit          3D

 19 20  0  0  0  0  0  0  0  0999 V2000
   10.6704   42.9676   22.6285 C   0  0  0  0  0  0  0  0  0  0  0  0
   11.2412   44.3240   22.3889 C   0  0  0  0  0  0  0  0  0  0  0  0
   11.1438   44.8241   21.1451 N   0  0  0  0  0  0  0  0  0  0  0  0
   11.6072   46.0615   20.8684 C   0  0  0  0  0  0  0  0  0  0  0  0
   11.5222   46.5570   19.5578 C   0  0  0  0  0  0  0  0  0  0  0  0
   12.0412   47.8126   19.3600 C   0  0  0  0  0  0  0  0  0  0  0  0
   12.6213   48.5938   20.3356 C   0  0  0  0  0  0  0  0  0  0  0  0
   12.6832   48.0618   21.6266 C   0  0  0  0  0  0  0  0  0  0  0  0
   12.1741   46.7989   21.8745 C   0  0  0  0  0  0  0  0  0  0  0  0
   12.2764   46.2858   23.1665 C   0  0  0  0  0  0  0  0  0  0  0  0
   12.7883   46.9404   24.0864 O   0  0  0  0  0  0  0  0  0  0  0  0
   11.8035   45.0229   23.4292 C   0  0  0  0  0  0  0  0  0  0  0  0
   11.9132   44.4566   24.7436 O   0  0  0  0  0  0  0  0  0  0  0  0
   13.1937   43.8241   24.8887 C   0  0  0  0  0  0  0  0  0  0  0  0
   13.4496   43.1536   26.1808 C   0  0  0  0  0  0  0  0  0  0  0  0
   14.2369   44.3102   27.3468 S   0  0  0  0  0  0  0  0  0  0  0  0
   13.0788   44.7105   28.6834 C   0  0  0  0  0  0  0  0  0  0  0  0
   11.6912   44.8394   28.1269 C   0  0  0  0  0  0  0  0  0  0  0  0
   13.5000   45.9862   29.3425 C   0  0  0  0  0  0  0  0  0  0  0  0
  1  2  1  0
  2  3  1  0
  3  4  1  0
  4  5  2  0
  5  6  1  0
  6  7  2  0
  7  8  1  0
  8  9  2  0
  9 10  1  0
 10 11  2  0
 10 12  1  0
 12 13  1  0
 13 14  1  0
 14 15  1  0
 15 16  1  0
 16 17  1  0
 17 18  1  0
 17 19  1  0
 12  2  2  0
  9  4  1  0
M  END
$$$$
