
     RDKit          3D

 27 29  0  0  0  0  0  0  0  0999 V2000
  127.8672  135.4512  138.2279 C   0  0  0  0  0  0  0  0  0  0  0  0
  127.3702  135.2313  139.6588 C   0  0  0  0  0  0  0  0  0  0  0  0
  127.7593  136.3209  140.5022 N   0  0  0  0  0  0  0  0  0  0  0  0
  126.7470  137.3201  140.6584 C   0  0  0  0  0  0  0  0  0  0  0  0
  127.4536  138.6172  141.0735 C   0  0  0  0  0  0  0  0  0  0  0  0
  128.4620  138.2188  142.1177 C   0  0  0  0  0  0  0  0  0  0  0  0
  128.8468  139.3069  142.9800 N   0  0  0  0  0  0  0  0  0  0  0  0
  128.4264  140.5774  142.5559 C   0  0  0  0  0  0  0  0  0  0  0  0
  127.8589  141.4951  143.5643 C   0  0  0  0  0  0  0  0  0  0  0  0
  127.3035  140.7946  144.7835 C   0  0  0  0  0  0  0  0  0  0  0  0
  126.7965  141.7926  145.7317 C   0  0  0  0  0  0  0  0  0  0  0  0
  125.6562  142.3383  145.5413 O   0  0  0  0  0  0  0  0  0  0  0  0
  127.5080  142.2068  146.8826 N   0  0  0  0  0  0  0  0  0  0  0  0
  127.2850  143.5173  147.4865 C   0  0  0  0  0  0  0  0  0  0  0  0
  128.1881  143.7210  148.6832 C   0  0  0  0  0  0  0  0  0  0  0  0
  127.5178  144.5712  149.7098 C   0  0  0  0  0  0  0  0  0  0  0  0
  126.2347  144.9906  149.4454 C   0  0  0  0  0  0  0  0  0  0  0  0
  125.6254  145.7777  150.3984 C   0  0  0  0  0  0  0  0  0  0  0  0
  124.3628  146.2063  150.1652 F   0  0  0  0  0  0  0  0  0  0  0  0
  126.2814  146.1211  151.5566 C   0  0  0  0  0  0  0  0  0  0  0  0
  127.5587  145.6970  151.8075 C   0  0  0  0  0  0  0  0  0  0  0  0
  128.1891  144.8980  150.8503 C   0  0  0  0  0  0  0  0  0  0  0  0
  129.4408  144.4699  151.0744 F   0  0  0  0  0  0  0  0  0  0  0  0
  128.4707  139.9854  145.3362 C   0  0  0  0  0  0  0  0  0  0  0  0
  128.8256  138.9581  144.3300 C   0  0  0  0  0  0  0  0  0  0  0  0
  129.6354  137.6070  141.3903 C   0  0  0  0  0  0  0  0  0  0  0  0
  129.0683  136.8282  140.2044 C   0  0  0  0  0  0  0  0  0  0  0  0
  1  2  1  0
  2  3  1  0
  3  4  1  0
  4  5  1  0
  5  6  1  0
  6  7  1  0
  7  8  1  0
  8  9  1  0
  9 10  1  0
 10 11  1  0
 11 12  2  0
 11 13  1  0
 13 14  1  0
 14 15  1  0
 15 16  1  0
 16 17  2  0
 17 18  1  0
 18 19  1  0
 18 20  2  0
 20 21  1  0
 21 22  2  0
 22 23  1  0
 10 24  1  0
 24 25  1  0
  6 26  1  0
 26 27  1  0
 27  3  1  0
 25  7  1  0
 22 16  1  0
M  END
$$$$
