
     RDKit          3D

  9  9  0  0  0  0  0  0  0  0999 V2000
   12.3808  -25.2315  -21.6405 O   0  0  0  0  0  0  0  0  0  0  0  0
   13.6741  -25.6150  -21.3044 C   0  0  0  0  0  0  0  0  0  0  0  0
   13.9643  -26.8048  -20.6690 C   0  0  0  0  0  0  0  0  0  0  0  0
   15.2547  -27.1843  -20.3352 C   0  0  0  0  0  0  0  0  0  0  0  0
   16.3044  -26.3561  -20.6405 C   0  0  0  0  0  0  0  0  0  0  0  0
   16.0430  -25.1583  -21.2768 C   0  0  0  0  0  0  0  0  0  0  0  0
   17.0891  -24.3657  -21.5644 F   0  0  0  0  0  0  0  0  0  0  0  0
   14.7405  -24.7902  -21.6061 C   0  0  0  0  0  0  0  0  0  0  0  0
   14.5050  -23.6245  -22.2233 F   0  0  0  0  0  0  0  0  0  0  0  0
  1  2  1  0
  2  3  2  0
  3  4  1  0
  4  5  2  0
  5  6  1  0
  6  7  1  0
  6  8  2  0
  8  9  1  0
  8  2  1  0
M  END
$$$$
