
     RDKit          3D

 22 23  0  0  0  0  0  0  0  0999 V2000
  134.4850  140.9024  158.0612 C   0  0  0  0  0  0  0  0  0  0  0  0
  133.1578  141.5873  158.3487 C   0  0  0  0  0  0  0  0  0  0  0  0
  132.1071  140.9389  157.4486 C   0  0  0  0  0  0  0  0  0  0  0  0
  130.9013  141.5513  157.5175 O   0  0  0  0  0  0  0  0  0  0  0  0
  129.9128  141.0609  156.7449 C   0  0  0  0  0  0  0  0  0  0  0  0
  129.7903  141.6777  155.4222 C   0  0  0  0  0  0  0  0  0  0  0  0
  129.7038  142.9030  155.2563 O   0  0  0  0  0  0  0  0  0  0  0  0
  129.7676  140.8506  154.2600 N   0  0  0  0  0  0  0  0  0  0  0  0
  129.7129  141.4567  152.9569 C   0  0  0  0  0  0  0  0  0  0  0  0
  129.8167  140.8784  151.7644 N   0  0  0  0  0  0  0  0  0  0  0  0
  129.7437  141.5783  150.7170 N   0  0  0  0  0  0  0  0  0  0  0  0
  129.5634  142.8913  150.8067 C   0  0  0  0  0  0  0  0  0  0  0  0
  129.4536  143.8761  149.6709 C   0  0  0  0  0  0  0  0  0  0  0  0
  128.0804  144.4437  149.7312 C   0  0  0  0  0  0  0  0  0  0  0  0
  127.0361  143.9209  148.9992 C   0  0  0  0  0  0  0  0  0  0  0  0
  125.7699  144.4620  149.0692 C   0  0  0  0  0  0  0  0  0  0  0  0
  125.4817  145.5477  149.8696 C   0  0  0  0  0  0  0  0  0  0  0  0
  124.2130  146.1053  149.9523 O   0  0  0  0  0  0  0  0  0  0  0  0
  123.9342  146.9167  151.0781 C   0  0  0  0  0  0  0  0  0  0  0  0
  126.5362  146.0720  150.6057 C   0  0  0  0  0  0  0  0  0  0  0  0
  127.8062  145.5303  150.5363 C   0  0  0  0  0  0  0  0  0  0  0  0
  129.4989  143.1025  152.5006 S   0  0  0  0  0  0  0  0  0  0  0  0
  1  2  1  0
  2  3  1  0
  3  4  1  0
  4  5  1  0
  5  6  1  0
  6  7  2  0
  6  8  1  0
  8  9  1  0
  9 10  2  0
 10 11  1  0
 11 12  2  0
 12 13  1  0
 13 14  1  0
 14 15  2  0
 15 16  1  0
 16 17  2  0
 17 18  1  0
 18 19  1  0
 17 20  1  0
 20 21  2  0
 12 22  1  0
 22  9  1  0
 21 14  1  0
M  END
$$$$
