
     RDKit          3D

 18 20  0  0  0  0  0  0  0  0999 V2000
    5.3507   32.3236   -1.2730 C   0  0  0  0  0  0  0  0  0  0  0  0
    4.0578   32.7273   -1.9467 C   0  0  0  0  0  0  0  0  0  0  0  0
    3.6159   31.7017   -2.9324 C   0  0  0  0  0  0  0  0  0  0  0  0
    2.8741   32.0716   -4.0450 C   0  0  0  0  0  0  0  0  0  0  0  0
    2.4747   31.1073   -4.9458 C   0  0  0  0  0  0  0  0  0  0  0  0
    2.7864   29.7782   -4.7825 C   0  0  0  0  0  0  0  0  0  0  0  0
    2.3528   28.7740   -5.7492 C   0  0  0  0  0  0  0  0  0  0  0  0
    2.8501   27.5355   -5.8990 N   0  0  0  0  0  0  0  0  0  0  0  0
    2.2334   26.8655   -6.8745 C   0  0  0  0  0  0  0  0  0  0  0  0
    2.3808   25.6026   -7.3907 C   0  0  0  0  0  0  0  0  0  0  0  0
    1.5577   25.2256   -8.4205 C   0  0  0  0  0  0  0  0  0  0  0  0
    0.5834   26.0760   -8.9570 C   0  0  0  0  0  0  0  0  0  0  0  0
   -0.2478   25.6430  -10.0246 N   0  0  0  0  0  0  0  0  0  0  0  0
    0.4631   27.3379   -8.4141 C   0  0  0  0  0  0  0  0  0  0  0  0
    1.2735   27.7481   -7.3795 C   0  0  0  0  0  0  0  0  0  0  0  0
    1.3809   28.8871   -6.6714 N   0  0  0  0  0  0  0  0  0  0  0  0
    3.5235   29.4198   -3.6746 C   0  0  0  0  0  0  0  0  0  0  0  0
    3.9300   30.3736   -2.7650 C   0  0  0  0  0  0  0  0  0  0  0  0
  1  2  1  0
  2  3  1  0
  3  4  2  0
  4  5  1  0
  5  6  2  0
  6  7  1  0
  7  8  2  0
  8  9  1  0
  9 10  2  0
 10 11  1  0
 11 12  2  0
 12 13  1  0
 12 14  1  0
 14 15  2  0
 15 16  1  0
  6 17  1  0
 17 18  2  0
 18  3  1  0
 16  7  1  0
 15  9  1  0
M  END
$$$$
