
     RDKit          3D

 26 28  0  0  0  0  0  0  0  0999 V2000
  112.7972  146.8696  135.3708 C   0  0  0  0  0  0  0  0  0  0  0  0
  114.0015  147.3068  135.9240 O   0  0  0  0  0  0  0  0  0  0  0  0
  115.2111  147.4148  135.2526 C   0  0  0  0  0  0  0  0  0  0  0  0
  115.3791  147.5628  133.9058 C   0  0  0  0  0  0  0  0  0  0  0  0
  116.6137  147.6648  133.3010 C   0  0  0  0  0  0  0  0  0  0  0  0
  116.7624  147.8238  131.8486 C   0  0  2  0  0  0  0  0  0  0  0  0
  116.1145  149.1057  131.3937 C   0  0  0  0  0  0  0  0  0  0  0  0
  116.3248  149.2723  129.9160 C   0  0  0  0  0  0  0  0  0  0  0  0
  116.6981  150.3635  129.4050 O   0  0  0  0  0  0  0  0  0  0  0  0
  116.0698  148.0886  129.1012 C   0  0  0  0  0  0  0  0  0  0  0  0
  115.8546  148.2592  127.7464 C   0  0  0  0  0  0  0  0  0  0  0  0
  115.6138  147.1340  126.9804 C   0  0  0  0  0  0  0  0  0  0  0  0
  115.5952  145.8808  127.5862 C   0  0  0  0  0  0  0  0  0  0  0  0
  115.3490  144.7551  126.7893 O   0  0  0  0  0  0  0  0  0  0  0  0
  115.8182  145.7627  128.9570 C   0  0  0  0  0  0  0  0  0  0  0  0
  116.0613  146.8690  129.7470 C   0  0  0  0  0  0  0  0  0  0  0  0
  116.2788  146.7190  131.1034 O   0  0  0  0  0  0  0  0  0  0  0  0
  117.7089  147.6091  134.1426 C   0  0  0  0  0  0  0  0  0  0  0  0
  117.6013  147.4589  135.5286 C   0  0  0  0  0  0  0  0  0  0  0  0
  118.8258  147.4055  136.3918 C   0  0  0  0  0  0  0  0  0  0  0  0
  119.3342  146.0004  136.3141 C   0  0  0  0  0  0  0  0  0  0  0  0
  120.3898  145.3376  136.7651 C   0  0  0  0  0  0  0  0  0  0  0  0
  121.6755  146.0219  137.0921 C   0  0  0  0  0  0  0  0  0  0  0  0
  120.3214  143.8630  136.9618 C   0  0  0  0  0  0  0  0  0  0  0  0
  116.3402  147.3619  136.0776 C   0  0  0  0  0  0  0  0  0  0  0  0
  116.2373  147.2134  137.4475 O   0  0  0  0  0  0  0  0  0  0  0  0
  1  2  1  0
  2  3  1  0
  3  4  2  0
  4  5  1  0
  6  5  1  1
  6  7  1  0
  7  8  1  0
  8  9  2  0
  8 10  1  0
 10 11  2  0
 11 12  1  0
 12 13  2  0
 13 14  1  0
 13 15  1  0
 15 16  2  0
 16 17  1  0
  5 18  2  0
 18 19  1  0
 19 20  1  0
 20 21  1  0
 21 22  2  3
 22 23  1  0
 22 24  1  0
 19 25  2  0
 25 26  1  0
 25  3  1  0
 17  6  1  0
 16 10  1  0
M  END
$$$$
