
     RDKit          3D

 26 28  0  0  0  0  0  0  0  0999 V2000
  111.8125  128.4969  156.1308 C   0  0  0  0  0  0  0  0  0  0  0  0
  111.9835  127.9625  154.8530 O   0  0  0  0  0  0  0  0  0  0  0  0
  112.2923  126.6417  154.5603 C   0  0  0  0  0  0  0  0  0  0  0  0
  112.7103  125.6922  155.4479 C   0  0  0  0  0  0  0  0  0  0  0  0
  113.0012  124.3932  155.0897 C   0  0  0  0  0  0  0  0  0  0  0  0
  113.4487  123.3936  156.0681 C   0  0  2  0  0  0  0  0  0  0  0  0
  114.5294  123.9686  156.9464 C   0  0  0  0  0  0  0  0  0  0  0  0
  114.9333  122.9477  157.9712 C   0  0  0  0  0  0  0  0  0  0  0  0
  115.0749  123.2339  159.1915 O   0  0  0  0  0  0  0  0  0  0  0  0
  115.1538  121.5957  157.4674 C   0  0  0  0  0  0  0  0  0  0  0  0
  115.8925  120.7201  158.2413 C   0  0  0  0  0  0  0  0  0  0  0  0
  116.0975  119.4412  157.7584 C   0  0  0  0  0  0  0  0  0  0  0  0
  115.5624  119.0775  156.5259 C   0  0  0  0  0  0  0  0  0  0  0  0
  115.7835  117.7757  156.0574 O   0  0  0  0  0  0  0  0  0  0  0  0
  114.8245  119.9983  155.7841 C   0  0  0  0  0  0  0  0  0  0  0  0
  114.6036  121.2826  156.2412 C   0  0  0  0  0  0  0  0  0  0  0  0
  113.8677  122.1725  155.4822 O   0  0  0  0  0  0  0  0  0  0  0  0
  112.8469  124.0830  153.7515 C   0  0  0  0  0  0  0  0  0  0  0  0
  112.4225  125.0110  152.7954 C   0  0  0  0  0  0  0  0  0  0  0  0
  112.2727  124.6165  151.3570 C   0  0  0  0  0  0  0  0  0  0  0  0
  111.0131  123.8136  151.2700 C   0  0  0  0  0  0  0  0  0  0  0  0
  110.3542  123.1654  150.3199 C   0  0  0  0  0  0  0  0  0  0  0  0
  109.0106  123.6081  149.8434 C   0  0  0  0  0  0  0  0  0  0  0  0
  110.9474  121.9538  149.6889 C   0  0  0  0  0  0  0  0  0  0  0  0
  112.1460  126.2959  153.2123 C   0  0  0  0  0  0  0  0  0  0  0  0
  111.7270  127.2105  152.2651 O   0  0  0  0  0  0  0  0  0  0  0  0
  1  2  1  0
  2  3  1  0
  3  4  2  0
  4  5  1  0
  6  5  1  6
  6  7  1  0
  7  8  1  0
  8  9  2  0
  8 10  1  0
 10 11  2  0
 11 12  1  0
 12 13  2  0
 13 14  1  0
 13 15  1  0
 15 16  2  0
 16 17  1  0
  5 18  2  0
 18 19  1  0
 19 20  1  0
 20 21  1  0
 21 22  2  3
 22 23  1  0
 22 24  1  0
 19 25  2  0
 25 26  1  0
 25  3  1  0
 17  6  1  0
 16 10  1  0
M  END
$$$$
