
     RDKit          3D

 15 15  0  0  0  0  0  0  0  0999 V2000
    2.6617   -3.8060  -57.8851 Cl  0  0  0  0  0  0  0  0  0  0  0  0
    1.0084   -4.4521  -58.0527 C   0  0  0  0  0  0  0  0  0  0  0  0
    0.3584   -4.2389  -59.5274 S   0  0  0  0  0  4  0  0  0  0  0  0
   -0.3661   -5.3105  -60.4772 C   0  0  0  0  0  0  0  0  0  0  0  0
   -1.6622   -5.5786  -60.4903 C   0  0  0  0  0  0  0  0  0  0  0  0
   -2.3011   -6.1742  -61.6593 C   0  0  0  0  0  0  0  0  0  0  0  0
   -1.7550   -7.0644  -62.4588 C   0  0  0  0  0  0  0  0  0  0  0  0
   -0.4282   -7.6548  -62.3761 C   0  0  0  0  0  0  0  0  0  0  0  0
   -0.0139   -8.5689  -61.5257 C   0  0  0  0  0  0  0  0  0  0  0  0
   -0.6676   -9.2049  -60.5236 O   0  0  0  0  0  0  0  0  0  0  0  0
   -1.4178   -8.8362  -59.4488 C   0  0  0  0  0  0  0  0  0  0  0  0
   -0.3026   -8.0628  -58.1474 P   0  0  0  0  0  0  0  0  0  0  0  0
   -1.2863   -6.7801  -57.3003 C   0  0  0  0  0  0  0  0  0  0  0  0
   -0.8429   -5.6798  -56.9022 N   0  0  0  0  0  0  0  0  0  0  0  0
    0.3754   -5.0815  -56.9360 N   0  0  0  0  0  0  0  0  0  0  0  0
  1  2  1  0
  2  3  2  0
  3  4  2  0
  4  5  2  0
  5  6  1  0
  6  7  2  0
  7  8  1  0
  8  9  2  0
  9 10  1  0
 10 11  1  0
 11 12  1  0
 12 13  1  0
 13 14  2  0
 14 15  1  0
 15  2  1  0
M  CHG  1   3  -1
M  RAD  1   3   2
M  END
$$$$
