
     RDKit          3D

 25 26  0  0  0  0  0  0  0  0999 V2000
   11.7347   29.2998   -9.2212 C   0  0  0  0  0  0  0  0  0  0  0  0
   10.8245   29.8638   -8.1072 C   0  0  0  0  0  0  0  0  0  0  0  0
    9.9254   30.8487   -8.7744 C   0  0  0  0  0  0  0  0  0  0  0  0
   10.1039   28.8099   -7.6016 O   0  0  0  0  0  0  0  0  0  0  0  0
    9.5364   29.0071   -6.3775 C   0  0  0  0  0  0  0  0  0  0  0  0
    8.0643   28.9407   -6.2638 C   0  0  0  0  0  0  0  0  0  0  0  0
    7.5176   29.0443   -4.8522 C   0  0  0  0  0  0  0  0  0  0  0  0
    8.1481   28.2922   -3.9256 O   0  0  0  0  0  0  0  0  0  0  0  0
    6.0164   28.8682   -4.8582 C   0  0  0  0  0  0  0  0  0  0  0  0
    5.2679   29.9001   -5.2347 O   0  0  0  0  0  0  0  0  0  0  0  0
    4.5535   30.9660   -4.9427 C   0  0  0  0  0  0  0  0  0  0  0  0
    5.1486   31.9765   -4.1624 C   0  0  0  0  0  0  0  0  0  0  0  0
    4.4990   33.1268   -3.7961 C   0  0  0  0  0  0  0  0  0  0  0  0
    3.2011   33.2849   -4.2200 C   0  0  0  0  0  0  0  0  0  0  0  0
    2.6053   32.3118   -4.9792 C   0  0  0  0  0  0  0  0  0  0  0  0
    3.2486   31.1328   -5.3640 C   0  0  0  0  0  0  0  0  0  0  0  0
    2.5377   30.1647   -6.1654 C   0  0  0  0  0  0  0  0  0  0  0  0
    1.9818   30.5486   -7.2715 O   0  0  0  0  0  0  0  0  0  0  0  0
    2.3719   28.8139   -5.8799 N   0  0  0  0  0  0  0  0  0  0  0  0
    1.8934   27.8682   -6.8706 C   0  0  0  0  0  0  0  0  0  0  0  0
    2.2219   26.5407   -6.7909 C   0  0  0  0  0  0  0  0  0  0  0  0
    1.7738   25.6107   -7.7322 C   0  0  0  0  0  0  0  0  0  0  0  0
    0.9774   26.0479   -8.7704 C   0  0  0  0  0  0  0  0  0  0  0  0
    0.6351   27.3842   -8.8677 C   0  0  0  0  0  0  0  0  0  0  0  0
    1.0987   28.2848   -7.9125 C   0  0  0  0  0  0  0  0  0  0  0  0
  1  2  1  0
  2  3  1  0
  2  4  1  0
  4  5  1  0
  5  6  1  0
  6  7  1  0
  7  8  1  0
  7  9  1  0
  9 10  1  0
 10 11  1  0
 11 12  2  0
 12 13  1  0
 13 14  2  0
 14 15  1  0
 15 16  2  0
 16 17  1  0
 17 18  2  0
 17 19  1  0
 19 20  1  0
 20 21  2  0
 21 22  1  0
 22 23  2  0
 23 24  1  0
 24 25  2  0
 16 11  1  0
 25 20  1  0
M  END
$$$$
