
     RDKit          3D

 24 26  0  0  0  0  0  0  0  0999 V2000
  139.5626  151.5036  147.5156 C   0  0  0  0  0  0  0  0  0  0  0  0
  138.9619  152.2466  146.4749 O   0  0  0  0  0  0  0  0  0  0  0  0
  137.7592  152.8918  146.5920 C   0  0  0  0  0  0  0  0  0  0  0  0
  137.1830  153.2453  147.8066 C   0  0  0  0  0  0  0  0  0  0  0  0
  135.9765  153.8912  147.8874 C   0  0  0  0  0  0  0  0  0  0  0  0
  135.3110  154.2006  146.7065 C   0  0  0  0  0  0  0  0  0  0  0  0
  135.8473  153.8678  145.4784 C   0  0  0  0  0  0  0  0  0  0  0  0
  137.0639  153.2187  145.4523 C   0  0  0  0  0  0  0  0  0  0  0  0
  135.2419  154.1475  144.3701 O   0  0  0  0  0  0  0  0  0  0  0  0
  134.0614  154.7738  144.2899 C   0  0  0  0  0  0  0  0  0  0  0  0
  133.5426  155.0066  142.9691 C   0  0  0  0  0  0  0  0  0  0  0  0
  133.7439  153.9838  141.9929 C   0  0  0  0  0  0  0  0  0  0  0  0
  133.2685  154.0676  140.7215 C   0  0  0  0  0  0  0  0  0  0  0  0
  132.5588  155.1926  140.3576 C   0  0  0  0  0  0  0  0  0  0  0  0
  132.3246  156.2161  141.2443 C   0  0  0  0  0  0  0  0  0  0  0  0
  131.6307  157.3506  140.9418 O   0  0  0  0  0  0  0  0  0  0  0  0
  131.1918  157.7415  139.6808 C   0  0  0  0  0  0  0  0  0  0  0  0
  132.8317  156.0919  142.5528 C   0  0  0  0  0  0  0  0  0  0  0  0
  132.5487  157.1483  143.4015 O   0  0  0  0  0  0  0  0  0  0  0  0
  133.6296  158.0683  143.6915 C   0  0  0  0  0  0  0  0  0  0  0  0
  133.5057  155.1188  145.4648 C   0  0  0  0  0  0  0  0  0  0  0  0
  132.3045  155.7784  145.5495 O   0  0  0  0  0  0  0  0  0  0  0  0
  134.1016  154.8473  146.7026 C   0  0  0  0  0  0  0  0  0  0  0  0
  133.5692  155.1735  147.7894 O   0  0  0  0  0  0  0  0  0  0  0  0
  1  2  1  0
  2  3  1  0
  3  4  2  0
  4  5  1  0
  5  6  2  0
  6  7  1  0
  7  8  2  0
  7  9  1  0
  9 10  1  0
 10 11  1  0
 11 12  2  0
 12 13  1  0
 13 14  2  0
 14 15  1  0
 15 16  1  0
 16 17  1  0
 15 18  2  0
 18 19  1  0
 19 20  1  0
 10 21  2  0
 21 22  1  0
 21 23  1  0
 23 24  2  0
  8  3  1  0
 18 11  1  0
 23  6  1  0
M  END
$$$$
