
     RDKit          3D

 26 26  0  0  0  0  0  0  0  0999 V2000
   17.0824  -25.7841  -26.6695 C   0  0  0  0  0  0  0  0  0  0  0  0
   16.9543  -24.7841  -26.1313 C   0  0  0  0  0  0  0  0  0  0  0  0
   18.3382  -23.9797  -27.5572 Cl  0  0  0  0  0  0  0  0  0  0  0  0
   16.8527  -23.4825  -25.4734 C   0  0  0  0  0  0  0  0  0  0  0  0
   17.2996  -21.9907  -26.2510 Cl  0  0  0  0  0  0  0  0  0  0  0  0
   16.4474  -23.4240  -24.1705 C   0  0  0  0  0  0  0  0  0  0  0  0
   15.4744  -24.3685  -23.6872 C   0  0  0  0  0  0  0  0  0  0  0  0
   15.0919  -24.3270  -22.3985 C   0  0  0  0  0  0  0  0  0  0  0  0
   14.1118  -25.2199  -21.9750 N   0  0  0  0  0  0  0  0  0  0  0  0
   13.9818  -25.7845  -20.5968 B   0  0  0  0  0  0  0  0  0  0  0  0
   12.7492  -26.7589  -20.2883 C   0  0  0  0  0  0  0  0  0  0  0  0
   12.3048  -26.7796  -19.0680 C   0  0  0  0  0  0  0  0  0  0  0  0
   12.8264  -26.0029  -17.9772 C   0  0  0  0  0  0  0  0  0  0  0  0
   13.8284  -25.1642  -18.0678 C   0  0  0  0  0  0  0  0  0  0  0  0
   14.5081  -24.9685  -19.3773 C   0  0  0  0  0  0  0  0  0  0  0  0
   15.5484  -24.1726  -19.4633 C   0  0  0  0  0  0  0  0  0  0  0  0
   16.4671  -24.0252  -20.5023 N   0  0  0  0  0  0  0  0  0  0  0  0
   17.6325  -23.1499  -20.4250 C   0  0  0  0  0  0  0  0  0  0  0  0
   17.2663  -21.9161  -19.7286 N   0  0  0  0  0  0  0  0  0  0  0  0
   18.2598  -22.9338  -21.6532 N   0  0  0  0  0  0  0  0  0  0  0  0
   19.1978  -22.2270  -22.0374 C   0  0  0  0  0  0  0  0  0  0  0  0
   19.8749  -21.5160  -21.0160 O   0  0  0  0  0  0  0  0  0  0  0  0
   21.0579  -20.9265  -21.1399 N   0  0  0  0  0  0  0  0  0  0  0  0
   21.6124  -20.2605  -19.9953 C   0  0  0  0  0  0  0  0  0  0  0  0
   20.6981  -19.2546  -19.5545 C   0  0  0  0  0  0  0  0  0  0  0  0
   19.9107  -18.4184  -19.1864 O   0  0  0  0  0  3  0  0  0  0  0  0
  1  2  2  0
  2  3  1  0
  2  4  1  0
  4  5  1  0
  4  6  2  3
  6  7  1  0
  7  8  2  3
  8  9  1  0
  9 10  1  0
 10 11  1  0
 11 12  2  0
 12 13  1  0
 13 14  2  0
 14 15  1  0
 15 16  2  3
 16 17  1  0
 17 18  1  0
 18 19  1  0
 18 20  1  0
 20 21  2  3
 21 22  1  0
 22 23  1  0
 23 24  1  0
 24 25  1  0
 25 26  3  0
 15 10  1  0
M  CHG  1  26   1
M  END
$$$$
