
     RDKit          3D

 26 26  0  0  0  0  0  0  0  0999 V2000
    9.3747   30.0506   -0.8496 C   0  0  0  0  0  0  0  0  0  0  0  0
    8.2788   30.0885   -1.1715 C   0  0  0  0  0  0  0  0  0  0  0  0
    7.8506   28.9405    0.5876 Cl  0  0  0  0  0  0  0  0  0  0  0  0
    6.8639   30.0800   -1.5394 C   0  0  0  0  0  0  0  0  0  0  0  0
    5.5881   30.4185   -0.4047 Cl  0  0  0  0  0  0  0  0  0  0  0  0
    6.5081   29.7344   -2.8119 C   0  0  0  0  0  0  0  0  0  0  0  0
    5.1169   29.7254   -3.1818 C   0  0  0  0  0  0  0  0  0  0  0  0
    4.7537   29.2554   -4.3884 C   0  0  0  0  0  0  0  0  0  0  0  0
    3.4395   29.4528   -4.8020 N   0  0  0  0  0  0  0  0  0  0  0  0
    2.9703   30.5172   -5.7412 B   0  0  0  0  0  0  0  0  0  0  0  0
    2.5933   31.9512   -5.1368 C   0  0  0  0  0  0  0  0  0  0  0  0
    1.6932   32.6404   -5.7708 C   0  0  0  0  0  0  0  0  0  0  0  0
    1.0111   32.2229   -6.9648 C   0  0  0  0  0  0  0  0  0  0  0  0
    1.2080   31.0830   -7.5792 C   0  0  0  0  0  0  0  0  0  0  0  0
    2.2020   30.1170   -7.0372 C   0  0  0  0  0  0  0  0  0  0  0  0
    2.4453   28.9978   -7.6785 C   0  0  0  0  0  0  0  0  0  0  0  0
    1.7028   27.8176   -7.7132 N   0  0  0  0  0  0  0  0  0  0  0  0
    2.2135   26.5341   -7.2422 C   0  0  0  0  0  0  0  0  0  0  0  0
    1.1648   25.5209   -7.3652 N   0  0  0  0  0  0  0  0  0  0  0  0
    2.7936   26.5874   -5.9736 N   0  0  0  0  0  0  0  0  0  0  0  0
    3.1583   25.7427   -5.1486 C   0  0  0  0  0  0  0  0  0  0  0  0
    3.7798   26.2636   -3.9868 O   0  0  0  0  0  0  0  0  0  0  0  0
    4.3611   25.5446   -3.0341 N   0  0  0  0  0  0  0  0  0  0  0  0
    4.8158   26.2186   -1.8510 C   0  0  0  0  0  0  0  0  0  0  0  0
    3.6969   26.4642   -0.9968 C   0  0  0  0  0  0  0  0  0  0  0  0
    2.7641   26.6664   -0.2594 O   0  0  0  0  0  3  0  0  0  0  0  0
  1  2  2  0
  2  3  1  0
  2  4  1  0
  4  5  1  0
  4  6  2  3
  6  7  1  0
  7  8  2  3
  8  9  1  0
  9 10  1  0
 10 11  1  0
 11 12  2  0
 12 13  1  0
 13 14  2  0
 14 15  1  0
 15 16  2  3
 16 17  1  0
 17 18  1  0
 18 19  1  0
 18 20  1  0
 20 21  2  3
 21 22  1  0
 22 23  1  0
 23 24  1  0
 24 25  1  0
 25 26  3  0
 15 10  1  0
M  CHG  1  26   1
M  END
$$$$
