
     RDKit          3D

 28 30  0  0  0  0  0  0  0  0999 V2000
   65.1389   39.0501   -1.6214 C   0  0  0  0  0  0  0  0  0  0  0  0
   64.9038   38.0816   -0.6264 O   0  0  0  0  0  0  0  0  0  0  0  0
   63.5945   37.8416   -0.2347 C   0  0  0  0  0  0  0  0  0  0  0  0
   63.2815   37.4454    1.0485 C   0  0  0  0  0  0  0  0  0  0  0  0
   61.9599   37.2109    1.4166 C   0  0  0  0  0  0  0  0  0  0  0  0
   60.9305   37.3656    0.5192 C   0  0  0  0  0  0  0  0  0  0  0  0
   59.5203   37.1061    0.9459 C   0  0  0  0  0  0  0  0  0  0  0  0
   58.7430   36.3308    0.2538 N   0  0  0  0  0  0  0  0  0  0  0  0
   57.4993   36.1179    0.6528 C   0  0  0  0  0  0  0  0  0  0  0  0
   56.4821   35.2966    0.0304 N   0  0  0  0  0  0  0  0  0  0  0  0
   55.8613   34.2389    0.7330 C   0  0  0  0  0  0  0  0  0  0  0  0
   55.7268   34.3797    1.9827 O   0  0  0  0  0  0  0  0  0  0  0  0
   55.3719   33.0131    0.1237 C   0  0  0  0  0  0  0  0  0  0  0  0
   56.2264   32.1529   -0.5301 C   0  0  0  0  0  0  0  0  0  0  0  0
   55.7567   30.9741   -1.1162 C   0  0  0  0  0  0  0  0  0  0  0  0
   54.4256   30.6651   -1.0416 C   0  0  0  0  0  0  0  0  0  0  0  0
   53.5562   31.5008   -0.3990 C   0  0  0  0  0  0  0  0  0  0  0  0
   52.1681   31.2332   -0.2900 N   0  0  0  0  0  0  0  0  0  0  0  0
   51.4349   30.8739    1.2132 S   0  0  0  0  0  6  0  0  0  0  0  0
   52.6240   30.1086    2.2970 C   0  0  0  0  0  0  0  0  0  0  0  0
   50.2620   29.9380    0.9629 O   0  0  0  0  0  0  0  0  0  0  0  0
   50.8711   32.1195    1.7952 O   0  0  0  0  0  0  0  0  0  0  0  0
   54.0403   32.6668    0.1771 C   0  0  0  0  0  0  0  0  0  0  0  0
   57.4042   37.0529    2.0778 S   0  0  0  0  0  0  0  0  0  0  0  0
   58.9917   37.6754    2.0825 C   0  0  0  0  0  0  0  0  0  0  0  0
   59.6764   38.6025    3.0495 C   0  0  0  0  0  0  0  0  0  0  0  0
   61.2345   37.7601   -0.7611 C   0  0  0  0  0  0  0  0  0  0  0  0
   62.5447   37.9895   -1.1155 C   0  0  0  0  0  0  0  0  0  0  0  0
  1  2  1  0
  2  3  1  0
  3  4  2  0
  4  5  1  0
  5  6  2  0
  6  7  1  0
  7  8  1  0
  8  9  2  0
  9 10  1  0
 10 11  1  0
 11 12  2  0
 11 13  1  0
 13 14  2  0
 14 15  1  0
 15 16  2  0
 16 17  1  0
 17 18  1  0
 18 19  1  0
 19 20  1  0
 19 21  2  0
 19 22  2  0
 17 23  2  0
  9 24  1  0
 24 25  1  0
 25 26  1  0
  6 27  1  0
 27 28  2  0
 28  3  1  0
 25  7  2  0
 23 13  1  0
M  END
$$$$
