
     RDKit          3D

 20 20  0  0  0  0  0  0  0  0999 V2000
   23.2187   20.2782   18.7882 C   0  0  0  0  0  0  0  0  0  0  0  0
   22.4919   21.5734   18.3976 C   0  0  0  0  0  0  0  0  0  0  0  0
   21.1801   21.3893   18.7457 O   0  0  0  0  0  0  0  0  0  0  0  0
   20.7842   20.0537   18.8472 C   0  0  0  0  0  0  0  0  0  0  0  0
   21.1569   19.4896   20.1685 C   0  0  0  0  0  0  0  0  0  0  0  0
   20.4091   19.6884   21.2255 C   0  0  0  0  0  0  0  0  0  0  0  0
   19.1062   20.8467   21.1614 Cl  0  0  0  0  0  0  0  0  0  0  0  0
   20.6324   18.9517   22.4996 C   0  0  0  0  0  0  0  0  0  0  0  0
   20.3844   17.2123   22.1468 Cl  0  0  0  0  0  0  0  0  0  0  0  0
   19.4013   19.9900   18.7089 N   0  0  0  0  0  0  0  0  0  0  0  0
   18.4597   20.2320   19.4485 N   0  0  0  0  0  0  0  0  0  0  0  0
   17.0805   20.0679   19.0226 C   0  0  0  0  0  0  0  0  0  0  0  0
   16.7201   20.0522   17.7554 C   0  0  0  0  0  0  0  0  0  0  0  0
   17.5544   20.1859   16.5861 C   0  0  0  0  0  0  0  0  0  0  0  0
   18.5926   19.5105   16.1831 C   0  0  0  0  0  0  0  0  0  0  0  0
   19.2513   18.3497   16.8432 C   0  0  0  0  0  0  0  0  0  0  0  0
   20.7097   18.5498   16.9188 C   0  0  0  0  0  0  0  0  0  0  0  0
   21.4902   17.8447   15.9020 N   0  0  0  0  0  0  0  0  0  0  0  0
   22.7321   17.9976   15.9366 O   0  0  0  0  0  0  0  0  0  0  0  0
   21.3594   19.2616   17.7550 N   0  0  0  0  0  0  0  0  0  0  0  0
  1  2  1  0
  2  3  1  0
  3  4  1  0
  4  5  1  0
  5  6  2  3
  6  7  1  0
  6  8  1  0
  8  9  1  0
  4 10  1  0
 10 11  2  0
 11 12  1  0
 12 13  2  0
 13 14  1  0
 14 15  2  0
 15 16  1  0
 16 17  1  0
 17 18  1  0
 18 19  2  0
 17 20  2  0
 20  4  1  0
M  END
$$$$
