
     RDKit          3D

 26 26  0  0  0  0  0  0  0  0999 V2000
    9.9349   40.1051   19.3036 C   0  0  0  0  0  0  0  0  0  0  0  0
   10.2063   40.9132   18.2596 C   0  0  0  0  0  0  0  0  0  0  0  0
   10.1878   42.6075   18.6075 Cl  0  0  0  0  0  0  0  0  0  0  0  0
   10.4702   40.2862   16.9813 C   0  0  0  0  0  0  0  0  0  0  0  0
    9.0489   39.9091   15.9478 Cl  0  0  0  0  0  0  0  0  0  0  0  0
   11.6210   39.9646   16.5028 C   0  0  0  0  0  0  0  0  0  0  0  0
   11.9903   39.7889   15.1060 C   0  0  0  0  0  0  0  0  0  0  0  0
   13.2202   39.3835   14.7884 C   0  0  0  0  0  0  0  0  0  0  0  0
   13.6830   39.2918   13.4595 N   0  0  0  0  0  0  0  0  0  0  0  0
   15.2125   39.0784   13.3038 B   0  0  0  0  0  0  0  0  0  0  0  0
   15.8881   37.9044   14.0653 C   0  0  0  0  0  0  0  0  0  0  0  0
   16.8858   37.2563   13.4868 C   0  0  0  0  0  0  0  0  0  0  0  0
   17.3905   37.5950   12.1561 C   0  0  0  0  0  0  0  0  0  0  0  0
   16.9256   38.5568   11.3946 C   0  0  0  0  0  0  0  0  0  0  0  0
   15.8101   39.3869   11.8720 C   0  0  0  0  0  0  0  0  0  0  0  0
   15.3014   40.3585   11.1654 C   0  0  0  0  0  0  0  0  0  0  0  0
   14.3674   40.0168   10.1539 N   0  0  0  0  0  0  0  0  0  0  0  0
   12.9153   39.9797   10.4084 C   0  0  0  0  0  0  0  0  0  0  0  0
   12.7871   39.2123   11.6799 N   0  0  0  0  0  0  0  0  0  0  0  0
   12.2737   39.4038    9.3707 N   0  0  0  0  0  0  0  0  0  0  0  0
   11.3275   39.2232    8.6664 C   0  0  0  0  0  0  0  0  0  0  0  0
   11.3583   38.5359    7.4285 O   0  0  0  0  0  0  0  0  0  0  0  0
   10.1330   38.4721    6.7783 N   0  0  0  0  0  0  0  0  0  0  0  0
   10.2734   37.8585    5.4973 C   0  0  0  0  0  0  0  0  0  0  0  0
   10.6529   38.8809    4.4859 C   0  0  0  0  0  0  0  0  0  0  0  0
   10.9351   39.6041    3.7477 O   0  0  0  0  0  3  0  0  0  0  0  0
  1  2  2  0
  2  3  1  0
  2  4  1  0
  4  5  1  0
  4  6  2  3
  6  7  1  0
  7  8  2  3
  8  9  1  0
  9 10  1  0
 10 11  1  0
 11 12  2  0
 12 13  1  0
 13 14  2  0
 14 15  1  0
 15 16  2  3
 16 17  1  0
 17 18  1  0
 18 19  1  0
 18 20  1  0
 20 21  2  3
 21 22  1  0
 22 23  1  0
 23 24  1  0
 24 25  1  0
 25 26  3  0
 15 10  1  0
M  CHG  1  26   1
M  END
$$$$
