
     RDKit          3D

 21 22  0  0  0  0  0  0  0  0999 V2000
   -3.7939  -10.4690  -63.5311 Cl  0  0  0  0  0  0  0  0  0  0  0  0
   -2.8969   -9.2929  -62.5775 C   0  0  0  0  0  0  0  0  0  0  0  0
   -3.4351   -8.7331  -61.4345 C   0  0  0  0  0  0  0  0  0  0  0  0
   -2.7611   -7.8174  -60.7001 C   0  0  0  0  0  0  0  0  0  0  0  0
   -1.4709   -7.3659  -61.0506 C   0  0  0  0  0  0  0  0  0  0  0  0
   -0.8438   -6.4290  -60.1993 N   0  0  0  0  0  0  0  0  0  0  0  0
   -0.4268   -6.5533  -58.8767 C   0  0  0  0  0  0  0  0  0  0  0  0
   -0.6508   -7.5825  -58.0820 C   0  0  0  0  0  0  0  0  0  0  0  0
   -0.1559   -7.5998  -56.6650 C   0  0  0  0  0  0  0  0  0  0  0  0
   -1.0067   -6.6601  -55.8422 C   0  0  0  0  0  0  0  0  0  0  0  0
   -0.1769   -6.0337  -54.7824 C   0  0  0  0  0  0  0  0  0  0  0  0
    0.4936   -4.8492  -55.1178 O   0  0  0  0  0  0  0  0  0  0  0  0
    1.6882   -5.0028  -55.3035 N   0  0  0  0  0  0  0  0  0  0  0  0
    1.6773   -4.2009  -56.6816 C   0  0  0  0  0  0  0  0  0  0  0  0
    1.6683   -3.5930  -57.6880 S   0  0  0  0  0  6  0  0  0  0  0  0
    1.6587   -3.2192  -58.3311 N   0  0  0  0  0  0  0  0  0  0  0  0
    1.1133   -4.7775  -59.5020 C   0  0  0  0  0  0  0  0  0  0  0  0
    0.3828   -5.3884  -58.2602 C   0  0  0  0  0  0  0  0  0  0  0  0
   -0.9340   -7.9137  -62.1809 C   0  0  0  0  0  0  0  0  0  0  0  0
   -1.6444   -8.8752  -62.9331 C   0  0  0  0  0  0  0  0  0  0  0  0
   -0.9000   -9.5708  -64.3723 Cl  0  0  0  0  0  0  0  0  0  0  0  0
  1  2  1  0
  2  3  2  0
  3  4  1  0
  4  5  2  0
  5  6  1  0
  6  7  1  0
  7  8  2  0
  8  9  1  0
  9 10  1  0
 10 11  1  0
 11 12  1  0
 12 13  1  0
 13 14  1  0
 14 15  3  0
 15 16  2  0
 16 17  1  0
 17 18  1  0
  5 19  1  0
 19 20  2  0
 20 21  1  0
 20  2  1  0
 18  7  1  0
M  END
$$$$
