
     RDKit          3D

 19 21  0  0  0  0  0  0  0  0999 V2000
    3.2008    9.9067  -24.9952 C   0  0  0  0  0  0  0  0  0  0  0  0
    3.3617   10.4059  -23.6225 C   0  0  0  0  0  0  0  0  0  0  0  0
    3.1617    9.5814  -22.5827 N   0  0  0  0  0  0  0  0  0  0  0  0
    3.3008   10.0076  -21.3279 C   0  0  0  0  0  0  0  0  0  0  0  0
    3.0973    9.1630  -20.1954 N   0  0  0  0  0  0  0  0  0  0  0  0
    2.5926    7.8499  -20.3579 C   0  0  0  0  0  0  0  0  0  0  0  0
    2.4062    7.0776  -19.3252 C   0  0  0  0  0  0  0  0  0  0  0  0
    2.6940    7.4854  -17.9360 C   0  0  0  0  0  0  0  0  0  0  0  0
    3.9005    6.3933  -17.1989 Cl  0  0  0  0  0  0  0  0  0  0  0  0
    3.2143    8.8549  -17.8286 C   0  0  0  0  0  0  0  0  0  0  0  0
    3.6006    9.4703  -16.2239 Cl  0  0  0  0  0  0  0  0  0  0  0  0
    3.3948    9.6196  -18.8926 C   0  0  0  0  0  0  0  0  0  0  0  0
    3.6483   11.2906  -21.1218 N   0  0  0  0  0  0  0  0  0  0  0  0
    3.8590   12.1536  -22.1419 C   0  0  0  0  0  0  0  0  0  0  0  0
    4.2156   13.4719  -21.9594 C   0  0  0  0  0  0  0  0  0  0  0  0
    4.4277   14.3412  -23.0039 C   0  0  0  0  0  0  0  0  0  0  0  0
    4.2749   13.8666  -24.3001 C   0  0  0  0  0  0  0  0  0  0  0  0
    3.9167   12.5469  -24.5430 C   0  0  0  0  0  0  0  0  0  0  0  0
    3.7205   11.7336  -23.4513 C   0  0  0  0  0  0  0  0  0  0  0  0
  1  2  1  0
  2  3  2  0
  3  4  1  0
  4  5  1  0
  5  6  1  0
  6  7  2  0
  7  8  1  0
  8  9  1  0
  8 10  1  0
 10 11  1  0
 10 12  2  0
  4 13  2  0
 13 14  1  0
 14 15  2  0
 15 16  1  0
 16 17  2  0
 17 18  1  0
 18 19  2  0
 19  2  1  0
 12  5  1  0
 19 14  1  0
M  END
$$$$
