
     RDKit          3D

 20 21  0  0  0  0  0  0  0  0999 V2000
  120.6669  147.7038  146.2184 C   0  0  0  0  0  0  0  0  0  0  0  0
  119.9078  148.7037  145.3877 C   0  0  0  0  0  0  0  0  0  0  0  0
  119.0687  148.2388  144.3971 C   0  0  0  0  0  0  0  0  0  0  0  0
  118.3410  149.1089  143.5956 C   0  0  0  0  0  0  0  0  0  0  0  0
  117.4805  148.6035  142.6186 N   0  0  0  0  0  0  0  0  0  0  0  0
  117.1643  147.1727  142.4535 C   0  0  2  0  0  0  0  0  0  0  0  0
  117.3929  146.7613  141.0492 C   0  0  0  0  0  0  0  0  0  0  0  0
  115.8292  146.8819  142.9781 C   0  0  0  0  0  0  0  0  0  0  0  0
  115.0610  147.9090  143.7066 C   0  0  0  0  0  0  0  0  0  0  0  0
  113.7296  147.6157  144.1129 N   0  0  0  0  0  4  0  0  0  0  0  0
  112.8448  148.1854  143.0614 C   0  0  0  0  0  0  0  0  0  0  0  0
  113.3652  148.3386  145.3340 C   0  0  0  0  0  0  0  0  0  0  0  0
  118.5033  150.4615  143.8456 C   0  0  0  0  0  0  0  0  0  0  0  0
  117.8201  151.3945  143.0979 C   0  0  0  0  0  0  0  0  0  0  0  0
  117.9354  152.7634  143.2933 C   0  0  0  0  0  0  0  0  0  0  0  0
  117.2261  153.6446  142.5131 F   0  0  0  0  0  0  0  0  0  0  0  0
  118.7820  153.1855  144.2913 C   0  0  0  0  0  0  0  0  0  0  0  0
  119.4749  152.2699  145.0509 C   0  0  0  0  0  0  0  0  0  0  0  0
  119.3527  150.9196  144.8483 C   0  0  0  0  0  0  0  0  0  0  0  0
  120.0348  150.0217  145.5949 N   0  0  0  0  0  0  0  0  0  0  0  0
  1  2  1  0
  2  3  2  0
  3  4  1  0
  4  5  1  0
  5  6  1  0
  6  7  1  6
  6  8  1  0
  8  9  1  0
  9 10  1  0
 10 11  1  0
 10 12  1  0
  4 13  2  0
 13 14  1  0
 14 15  2  0
 15 16  1  0
 15 17  1  0
 17 18  2  0
 18 19  1  0
 19 20  2  0
 20  2  1  0
 19 13  1  0
M  CHG  1  10   1
M  END
$$$$
