
     RDKit          3D

 27 29  0  0  0  0  0  0  0  0999 V2000
    7.2201   27.5892   -9.0461 C   0  0  0  0  0  0  0  0  0  0  0  0
    8.0598   28.5247   -8.2937 N   0  0  0  0  0  0  0  0  0  0  0  0
    7.6776   30.1391   -8.8336 S   0  0  0  0  0  6  0  0  0  0  0  0
    7.6440   30.1643  -10.3228 O   0  0  0  0  0  0  0  0  0  0  0  0
    8.6670   31.1099   -8.2782 O   0  0  0  0  0  0  0  0  0  0  0  0
    6.0847   30.5381   -8.2126 C   0  0  0  0  0  0  0  0  0  0  0  0
    5.0576   30.6000   -9.1391 C   0  0  0  0  0  0  0  0  0  0  0  0
    3.7970   30.9152   -8.6755 C   0  0  0  0  0  0  0  0  0  0  0  0
    3.5975   31.1567   -7.3266 C   0  0  0  0  0  0  0  0  0  0  0  0
    4.6169   31.0972   -6.4021 C   0  0  0  0  0  0  0  0  0  0  0  0
    4.3683   31.3636   -4.9610 C   0  0  0  0  0  0  0  0  0  0  0  0
    5.3055   30.5186   -4.2288 N   0  0  0  0  0  0  0  0  0  0  0  0
    5.7776   31.1439   -3.0107 C   0  0  0  0  0  0  0  0  0  0  0  0
    4.6744   31.1745   -2.0214 C   0  0  0  0  0  0  0  0  0  0  0  0
    5.0515   31.3459   -0.6119 C   0  0  0  0  0  0  0  0  0  0  0  0
    6.3920   31.2985   -0.2570 N   0  0  0  0  0  0  0  0  0  0  0  0
    6.7730   31.5228    1.0847 C   0  0  0  0  0  0  0  0  0  0  0  0
    8.1732   31.0101    1.3186 C   0  0  0  0  0  0  0  0  0  0  0  0
    8.7485   31.4261    2.6180 C   0  0  0  0  0  0  0  0  0  0  0  0
    9.9059   30.8511    3.1309 C   0  0  0  0  0  0  0  0  0  0  0  0
   10.4151   31.2532    4.3411 C   0  0  0  0  0  0  0  0  0  0  0  0
    9.8071   32.2319    5.0884 C   0  0  0  0  0  0  0  0  0  0  0  0
    8.6539   32.8001    4.5695 C   0  0  0  0  0  0  0  0  0  0  0  0
    8.1176   32.4108    3.3460 C   0  0  0  0  0  0  0  0  0  0  0  0
    7.3693   30.7854   -1.1221 C   0  0  0  0  0  0  0  0  0  0  0  0
    6.8842   30.2901   -2.4487 C   0  0  0  0  0  0  0  0  0  0  0  0
    5.8707   30.7799   -6.8837 C   0  0  0  0  0  0  0  0  0  0  0  0
  1  2  1  0
  2  3  1  0
  3  4  2  0
  3  5  2  0
  3  6  1  0
  6  7  2  0
  7  8  1  0
  8  9  2  0
  9 10  1  0
 10 11  1  0
 11 12  1  0
 12 13  1  0
 13 14  1  0
 14 15  1  0
 15 16  1  0
 16 17  1  0
 17 18  1  0
 18 19  1  0
 19 20  2  0
 20 21  1  0
 21 22  2  0
 22 23  1  0
 23 24  2  0
 16 25  1  0
 25 26  1  0
 10 27  2  0
 27  6  1  0
 26 13  1  0
 24 19  1  0
M  END
$$$$
