
     RDKit          3D

 18 19  0  0  0  0  0  0  0  0999 V2000
    1.5646   -5.2704  -53.8377 C   0  0  0  0  0  0  0  0  0  0  0  0
    1.1611   -5.3102  -55.2673 C   0  0  0  0  0  0  0  0  0  0  0  0
    0.0682   -6.0465  -55.7141 C   0  0  0  0  0  0  0  0  0  0  0  0
   -0.3137   -6.0885  -57.0423 C   0  0  0  0  0  0  0  0  0  0  0  0
   -1.4280   -6.8608  -57.4359 N   0  0  0  0  0  0  0  0  0  0  0  0
   -2.0162   -7.8587  -56.5685 C   0  0  1  0  0  0  0  0  0  0  0  0
   -3.4800   -7.6318  -56.3267 C   0  0  0  0  0  0  0  0  0  0  0  0
   -1.7815   -9.2508  -57.0426 C   0  0  0  0  0  0  0  0  0  0  0  0
   -0.3938   -9.4514  -57.5379 C   0  0  0  0  0  0  0  0  0  0  0  0
    0.5124   -9.2765  -56.4836 O   0  0  0  0  0  0  0  0  0  0  0  0
    0.4407   -5.3599  -57.9361 C   0  0  0  0  0  0  0  0  0  0  0  0
    0.1484   -5.3325  -59.2768 C   0  0  0  0  0  0  0  0  0  0  0  0
    0.9340   -4.5848  -60.1463 C   0  0  0  0  0  0  0  0  0  0  0  0
    0.6139   -4.5816  -61.4686 F   0  0  0  0  0  0  0  0  0  0  0  0
    2.0196   -3.8490  -59.7271 C   0  0  0  0  0  0  0  0  0  0  0  0
    2.2995   -3.8869  -58.3796 C   0  0  0  0  0  0  0  0  0  0  0  0
    1.5406   -4.6183  -57.4904 C   0  0  0  0  0  0  0  0  0  0  0  0
    1.8457   -4.6310  -56.1763 N   0  0  0  0  0  0  0  0  0  0  0  0
  1  2  1  0
  2  3  2  0
  3  4  1  0
  4  5  1  0
  5  6  1  0
  6  7  1  6
  6  8  1  0
  8  9  1  0
  9 10  1  0
  4 11  2  0
 11 12  1  0
 12 13  2  0
 13 14  1  0
 13 15  1  0
 15 16  2  0
 16 17  1  0
 17 18  2  0
 18  2  1  0
 17 11  1  0
M  END
$$$$
