
     RDKit          3D

 18 19  0  0  0  0  0  0  0  0999 V2000
    1.6498   -5.1508  -53.7105 C   0  0  0  0  0  0  0  0  0  0  0  0
    1.1922   -5.2092  -55.1231 C   0  0  0  0  0  0  0  0  0  0  0  0
    0.0959   -5.9677  -55.5217 C   0  0  0  0  0  0  0  0  0  0  0  0
   -0.3361   -6.0270  -56.8338 C   0  0  0  0  0  0  0  0  0  0  0  0
   -1.4512   -6.8215  -57.1782 N   0  0  0  0  0  0  0  0  0  0  0  0
   -1.7861   -8.0300  -56.4558 C   0  0  1  0  0  0  0  0  0  0  0  0
   -3.2637   -8.1984  -56.2538 C   0  0  0  0  0  0  0  0  0  0  0  0
   -1.2071   -9.2549  -57.0740 C   0  0  0  0  0  0  0  0  0  0  0  0
    0.2776   -9.2788  -56.9946 C   0  0  0  0  0  0  0  0  0  0  0  0
    0.8214   -8.8593  -58.2160 O   0  0  0  0  0  0  0  0  0  0  0  0
    0.3704   -5.2929  -57.7615 C   0  0  0  0  0  0  0  0  0  0  0  0
    0.0260   -5.2815  -59.0901 C   0  0  0  0  0  0  0  0  0  0  0  0
    0.7644   -4.5275  -59.9949 C   0  0  0  0  0  0  0  0  0  0  0  0
    0.3935   -4.5406  -61.3038 F   0  0  0  0  0  0  0  0  0  0  0  0
    1.8524   -3.7698  -59.6236 C   0  0  0  0  0  0  0  0  0  0  0  0
    2.1847   -3.7919  -58.2877 C   0  0  0  0  0  0  0  0  0  0  0  0
    1.4735   -4.5289  -57.3644 C   0  0  0  0  0  0  0  0  0  0  0  0
    1.8292   -4.5257  -56.0630 N   0  0  0  0  0  0  0  0  0  0  0  0
  1  2  1  0
  2  3  2  0
  3  4  1  0
  4  5  1  0
  5  6  1  0
  6  7  1  6
  6  8  1  0
  8  9  1  0
  9 10  1  0
  4 11  2  0
 11 12  1  0
 12 13  2  0
 13 14  1  0
 13 15  1  0
 15 16  2  0
 16 17  1  0
 17 18  2  0
 18  2  1  0
 17 11  1  0
M  END
$$$$
