
     RDKit          3D

 29 31  0  0  0  0  0  0  0  0999 V2000
   21.1195  -20.1759  -19.5874 C   0  0  0  0  0  0  0  0  0  0  0  0
   20.0929  -20.9790  -19.5429 C   0  0  0  0  0  0  0  0  0  0  0  0
   19.5889  -21.6184  -20.6970 N   0  0  0  0  0  0  0  0  0  0  0  0
   18.4978  -21.0960  -21.4843 C   0  0  0  0  0  0  0  0  0  0  0  0
   17.7323  -22.2262  -22.1377 C   0  0  0  0  0  0  0  0  0  0  0  0
   16.5975  -22.5765  -21.7630 N   0  0  0  0  0  0  0  0  0  0  0  0
   16.0534  -23.6658  -22.5180 C   0  0  0  0  0  0  0  0  0  0  0  0
   14.8600  -23.0205  -23.2582 C   0  0  0  0  0  0  0  0  0  0  0  0
   15.5811  -24.6851  -21.6231 N   0  0  0  0  0  0  0  0  0  0  0  0
   16.3852  -24.9239  -20.5132 C   0  0  0  0  0  0  0  0  0  0  0  0
   15.7302  -24.8037  -19.1876 C   0  0  0  0  0  0  0  0  0  0  0  0
   14.4543  -25.0710  -19.0947 C   0  0  0  0  0  0  0  0  0  0  0  0
   13.6205  -24.9473  -17.5505 Cl  0  0  0  0  0  0  0  0  0  0  0  0
   13.6833  -25.4808  -20.2827 C   0  0  0  0  0  0  0  0  0  0  0  0
   12.3202  -24.9734  -20.0797 N   0  0  0  0  0  0  0  0  0  0  0  0
   14.2029  -24.8937  -21.5644 C   0  0  0  0  0  0  0  0  0  0  0  0
   13.5702  -25.9226  -22.8920 Cl  0  0  0  0  0  0  0  0  0  0  0  0
   17.1330  -24.0592  -23.4187 C   0  0  0  0  0  0  0  0  0  0  0  0
   17.2341  -25.1148  -24.2501 C   0  0  0  0  0  0  0  0  0  0  0  0
   18.3542  -25.4195  -25.1137 C   0  0  0  0  0  0  0  0  0  0  0  0
   18.7796  -24.7769  -26.1719 C   0  0  0  0  0  0  0  0  0  0  0  0
   18.1952  -23.5495  -26.7526 C   0  0  0  0  0  0  0  0  0  0  0  0
   19.0877  -22.5188  -26.7556 O   0  0  0  0  0  0  0  0  0  0  0  0
   20.2843  -22.7156  -26.1280 C   0  0  0  0  0  0  0  0  0  0  0  0
   20.5295  -21.5515  -25.1963 C   0  0  0  0  0  0  0  0  0  0  0  0
   20.8913  -21.9489  -23.8522 N   0  0  0  0  0  0  0  0  0  0  0  0
   20.6210  -23.1774  -23.2276 C   0  0  0  0  0  0  0  0  0  0  0  0
   19.4859  -23.6591  -22.9812 N   0  0  0  0  0  0  0  0  0  0  0  0
   18.2061  -23.0574  -23.2822 C   0  0  0  0  0  0  0  0  0  0  0  0
  1  2  2  0
  2  3  1  0
  3  4  1  0
  4  5  1  0
  5  6  2  0
  6  7  1  0
  7  8  1  0
  7  9  1  0
  9 10  1  0
 10 11  1  0
 11 12  2  0
 12 13  1  0
 12 14  1  0
 14 15  1  0
 14 16  1  0
 16 17  1  0
  7 18  1  0
 18 19  2  0
 19 20  1  0
 20 21  2  0
 21 22  1  0
 22 23  1  0
 23 24  1  0
 24 25  1  0
 25 26  1  0
 26 27  1  0
 27 28  2  0
 28 29  1  0
 29  5  1  0
 16  9  1  0
 29 18  1  0
M  END
$$$$
