
     RDKit          3D

 29 31  0  0  0  0  0  0  0  0999 V2000
   20.0435  -19.8366  -19.2334 C   0  0  0  0  0  0  0  0  0  0  0  0
   19.0839  -20.3419  -19.9576 C   0  0  0  0  0  0  0  0  0  0  0  0
   19.0892  -21.6908  -20.3760 N   0  0  0  0  0  0  0  0  0  0  0  0
   19.5479  -22.1195  -21.6756 C   0  0  0  0  0  0  0  0  0  0  0  0
   18.4502  -22.8679  -22.4004 C   0  0  0  0  0  0  0  0  0  0  0  0
   17.2912  -22.9625  -21.9546 N   0  0  0  0  0  0  0  0  0  0  0  0
   16.4099  -23.7134  -22.7984 C   0  0  0  0  0  0  0  0  0  0  0  0
   15.4006  -22.6506  -23.2886 C   0  0  0  0  0  0  0  0  0  0  0  0
   15.7307  -24.7116  -22.0205 N   0  0  0  0  0  0  0  0  0  0  0  0
   16.4908  -25.3064  -21.0186 C   0  0  0  0  0  0  0  0  0  0  0  0
   15.9390  -25.2347  -19.6434 C   0  0  0  0  0  0  0  0  0  0  0  0
   14.6415  -25.1940  -19.4921 C   0  0  0  0  0  0  0  0  0  0  0  0
   13.9262  -25.1090  -17.8871 Cl  0  0  0  0  0  0  0  0  0  0  0  0
   13.7468  -25.2164  -20.6638 C   0  0  0  0  0  0  0  0  0  0  0  0
   12.5647  -24.4293  -20.2898 N   0  0  0  0  0  0  0  0  0  0  0  0
   14.3478  -24.5844  -21.8872 C   0  0  0  0  0  0  0  0  0  0  0  0
   13.4251  -25.2120  -23.2930 Cl  0  0  0  0  0  0  0  0  0  0  0  0
   17.2690  -24.2143  -23.8673 C   0  0  0  0  0  0  0  0  0  0  0  0
   17.0091  -25.0925  -24.8557 C   0  0  0  0  0  0  0  0  0  0  0  0
   17.9347  -25.5270  -25.8794 C   0  0  0  0  0  0  0  0  0  0  0  0
   18.4509  -24.8438  -26.8695 C   0  0  0  0  0  0  0  0  0  0  0  0
   18.2001  -23.4215  -27.1851 C   0  0  0  0  0  0  0  0  0  0  0  0
   19.3458  -22.6843  -27.1345 O   0  0  0  0  0  0  0  0  0  0  0  0
   20.4778  -23.3031  -26.6868 C   0  0  0  0  0  0  0  0  0  0  0  0
   21.1065  -22.4329  -25.6236 C   0  0  0  0  0  0  0  0  0  0  0  0
   21.4323  -23.1458  -24.4066 N   0  0  0  0  0  0  0  0  0  0  0  0
   20.8684  -24.3480  -23.9493 C   0  0  0  0  0  0  0  0  0  0  0  0
   19.6631  -24.5439  -23.6494 N   0  0  0  0  0  0  0  0  0  0  0  0
   18.5889  -23.5777  -23.7051 C   0  0  0  0  0  0  0  0  0  0  0  0
  1  2  2  0
  2  3  1  0
  3  4  1  0
  4  5  1  0
  5  6  2  0
  6  7  1  0
  7  8  1  0
  7  9  1  0
  9 10  1  0
 10 11  1  0
 11 12  2  0
 12 13  1  0
 12 14  1  0
 14 15  1  0
 14 16  1  0
 16 17  1  0
  7 18  1  0
 18 19  2  0
 19 20  1  0
 20 21  2  0
 21 22  1  0
 22 23  1  0
 23 24  1  0
 24 25  1  0
 25 26  1  0
 26 27  1  0
 27 28  2  0
 28 29  1  0
 29  5  1  0
 16  9  1  0
 29 18  1  0
M  END
$$$$
