
     RDKit          3D

 37 42  0  0  0  0  0  0  0  0999 V2000
  150.3351  156.4268  150.8478 C   0  0  0  0  0  0  0  0  0  0  0  0
  150.6044  155.1914  151.7148 C   0  0  0  0  0  0  0  0  0  0  0  0
  150.7099  155.6647  153.1065 C   0  0  0  0  0  0  0  0  0  0  0  0
  151.9500  155.7390  153.7379 C   0  0  0  0  0  0  0  0  0  0  0  0
  152.0035  156.1880  155.0426 C   0  0  0  0  0  0  0  0  0  0  0  0
  150.8640  156.5588  155.7204 C   0  0  0  0  0  0  0  0  0  0  0  0
  150.9405  157.0386  157.1207 C   0  0  0  0  0  0  0  0  0  0  0  0
  151.5325  158.1750  157.5415 C   0  0  0  0  0  0  0  0  0  0  0  0
  151.3779  158.2471  158.9146 C   0  0  0  0  0  0  0  0  0  0  0  0
  150.6968  157.1770  159.3589 N   0  0  0  0  0  0  0  0  0  0  0  0
  150.6104  157.3711  160.6755 C   0  0  0  0  0  0  0  0  0  0  0  0
  151.2537  158.5748  160.9979 C   0  0  0  0  0  0  0  0  0  0  0  0
  151.2645  159.0429  162.3875 C   0  0  0  0  0  0  0  0  0  0  0  0
  151.1545  160.3535  162.7405 C   0  0  0  0  0  0  0  0  0  0  0  0
  151.1464  160.7564  164.0895 C   0  0  0  0  0  0  0  0  0  0  0  0
  151.2501  159.8421  165.1077 C   0  0  0  0  0  0  0  0  0  0  0  0
  151.2497  160.1550  166.4418 O   0  0  0  0  0  0  0  0  0  0  0  0
  151.2844  161.4274  166.9989 C   0  0  0  0  0  0  0  0  0  0  0  0
  151.3621  158.5159  164.7458 C   0  0  0  0  0  0  0  0  0  0  0  0
  151.3711  158.1071  163.4299 C   0  0  0  0  0  0  0  0  0  0  0  0
  151.7370  159.1182  159.8649 N   0  0  0  0  0  0  0  0  0  0  0  0
  152.4429  160.3834  160.0573 C   0  0  0  0  0  0  0  0  0  0  0  0
  152.6804  161.1589  158.7348 C   0  0  0  0  0  0  0  0  0  0  0  0
  152.5076  160.3137  157.6607 C   0  0  0  0  0  0  0  0  0  0  0  0
  152.2218  159.2505  156.7350 C   0  0  0  0  0  0  0  0  0  0  0  0
  150.4255  156.4311  158.2713 C   0  0  0  0  0  0  0  0  0  0  0  0
  149.7091  155.1810  158.2477 C   0  0  0  0  0  0  0  0  0  0  0  0
  150.3695  154.1235  158.5285 O   0  0  0  0  0  0  0  0  0  0  0  0
  148.3540  154.9952  157.9479 N   0  0  0  0  0  0  0  0  0  0  0  0
  147.5159  153.9027  158.2577 C   0  0  0  0  0  0  0  0  0  0  0  0
  146.6459  153.3474  157.3762 C   0  0  0  0  0  0  0  0  0  0  0  0
  145.8258  152.2556  157.7269 C   0  0  0  0  0  0  0  0  0  0  0  0
  145.8887  151.7255  158.9758 C   0  0  0  0  0  0  0  0  0  0  0  0
  146.7569  152.2678  159.8798 C   0  0  0  0  0  0  0  0  0  0  0  0
  147.5495  153.3287  159.5294 C   0  0  0  0  0  0  0  0  0  0  0  0
  149.6622  156.4730  155.0688 C   0  0  0  0  0  0  0  0  0  0  0  0
  149.5816  156.0361  153.7896 C   0  0  0  0  0  0  0  0  0  0  0  0
  1  2  1  0
  2  3  1  0
  3  4  2  0
  4  5  1  0
  5  6  2  0
  6  7  1  0
  7  8  1  0
  8  9  2  0
  9 10  1  0
 10 11  1  0
 11 12  2  0
 12 13  1  0
 13 14  2  0
 14 15  1  0
 15 16  2  0
 16 17  1  0
 17 18  1  0
 16 19  1  0
 19 20  2  0
 12 21  1  0
 21 22  1  0
 22 23  1  0
 23 24  1  0
 24 25  1  0
 10 26  1  0
 26 27  1  0
 27 28  2  0
 27 29  1  0
 29 30  1  0
 30 31  2  0
 31 32  1  0
 32 33  2  0
 33 34  1  0
 34 35  2  0
  6 36  1  0
 36 37  2  0
 37  3  1  0
 26  7  2  0
 35 30  1  0
 25  8  1  0
 21  9  1  0
 20 13  1  0
M  END
$$$$
