
     RDKit          3D

 21 23  0  0  0  0  0  0  0  0999 V2000
  122.6858  149.7039  143.1943 Cl  0  0  0  0  0  0  0  0  0  0  0  0
  122.1287  147.9786  143.3712 C   0  0  0  0  0  0  0  0  0  0  0  0
  122.9760  147.1249  142.8767 C   0  0  0  0  0  0  0  0  0  0  0  0
  122.9030  145.6525  142.8193 C   0  0  0  0  0  0  0  0  0  0  0  0
  122.6730  145.1870  141.5585 O   0  0  0  0  0  0  0  0  0  0  0  0
  123.5363  145.5103  140.5631 C   0  0  0  0  0  0  0  0  0  0  0  0
  122.8180  145.8091  139.2152 C   0  0  0  0  0  0  0  0  0  0  0  0
  121.6104  146.5832  139.5860 C   0  0  0  0  0  0  0  0  0  0  0  0
  121.0146  146.2307  140.7151 N   0  0  0  0  0  0  0  0  0  0  0  0
  119.9499  146.8286  141.2351 C   0  0  0  0  0  0  0  0  0  0  0  0
  119.4594  147.8661  140.5397 N   0  0  0  0  0  0  0  0  0  0  0  0
  119.9858  148.3030  139.3844 C   0  0  0  0  0  0  0  0  0  0  0  0
  119.4808  149.3647  138.6709 C   0  0  0  0  0  0  0  0  0  0  0  0
  120.0900  149.7477  137.4808 C   0  0  0  0  0  0  0  0  0  0  0  0
  121.1958  149.0862  136.9924 C   0  0  0  0  0  0  0  0  0  0  0  0
  121.7106  148.0121  137.7096 C   0  0  0  0  0  0  0  0  0  0  0  0
  121.1017  147.6412  138.8851 C   0  0  0  0  0  0  0  0  0  0  0  0
  119.3969  146.3322  142.5253 C   0  0  0  0  0  0  0  0  0  0  0  0
  119.7794  147.1172  143.7083 C   0  0  0  0  0  0  0  0  0  0  0  0
  120.8565  147.7590  144.0264 C   0  0  0  0  0  0  0  0  0  0  0  0
  120.7389  148.5964  145.6328 Cl  0  0  0  0  0  0  0  0  0  0  0  0
  1  2  1  0
  2  3  2  0
  3  4  1  0
  4  5  1  0
  5  6  1  0
  6  7  1  0
  7  8  1  0
  8  9  1  0
  9 10  2  0
 10 11  1  0
 11 12  2  0
 12 13  1  0
 13 14  2  0
 14 15  1  0
 15 16  2  0
 16 17  1  0
 10 18  1  0
 18 19  1  0
 19 20  2  0
 20 21  1  0
 20  2  1  0
 17  8  2  0
 17 12  1  0
M  END
$$$$
