
     RDKit          3D

 22 24  0  0  0  0  0  0  0  0999 V2000
   19.9489   38.4620   29.0037 O   0  0  0  0  0  0  0  0  0  0  0  0
   18.6175   38.7747   28.7178 C   0  0  0  0  0  0  0  0  0  0  0  0
   18.1595   37.9859   27.5179 C   0  0  0  0  0  0  0  0  0  0  0  0
   18.1699   36.5463   27.7624 N   0  0  0  0  0  0  0  0  0  0  0  0
   17.0594   35.9091   28.3769 C   0  0  0  0  0  0  0  0  0  0  0  0
   16.0126   36.6557   28.8326 N   0  0  0  0  0  0  0  0  0  0  0  0
   14.9290   36.1343   29.4195 C   0  0  0  0  0  0  0  0  0  0  0  0
   13.5599   37.1967   30.0077 P   0  0  0  0  0  0  0  0  0  0  0  0
   13.8896   38.9564   29.7336 C   0  0  0  0  0  0  0  0  0  0  0  0
   13.5273   39.5142   28.5233 C   0  0  0  0  0  0  0  0  0  0  0  0
   13.7475   40.8496   28.2433 C   0  0  0  0  0  0  0  0  0  0  0  0
   14.3472   41.6682   29.1899 C   0  0  0  0  0  0  0  0  0  0  0  0
   14.7174   41.1398   30.4014 C   0  0  0  0  0  0  0  0  0  0  0  0
   15.4668   42.1766   31.5759 Cl  0  0  0  0  0  0  0  0  0  0  0  0
   14.4839   39.7873   30.6599 C   0  0  0  0  0  0  0  0  0  0  0  0
   14.9080   34.8014   29.5486 N   0  0  0  0  0  0  0  0  0  0  0  0
   15.9157   33.9921   29.1181 C   0  0  0  0  0  0  0  0  0  0  0  0
   15.8488   32.6329   29.2725 C   0  0  0  0  0  0  0  0  0  0  0  0
   16.8698   31.8209   28.8357 C   0  0  0  0  0  0  0  0  0  0  0  0
   17.9949   32.3308   28.2291 C   0  0  0  0  0  0  0  0  0  0  0  0
   18.0438   33.7181   28.0811 C   0  0  0  0  0  0  0  0  0  0  0  0
   17.0284   34.5423   28.5140 C   0  0  0  0  0  0  0  0  0  0  0  0
  1  2  1  0
  2  3  1  0
  3  4  1  0
  4  5  1  0
  5  6  2  0
  6  7  1  0
  7  8  1  0
  8  9  1  0
  9 10  2  0
 10 11  1  0
 11 12  2  0
 12 13  1  0
 13 14  1  0
 13 15  2  0
  7 16  2  0
 16 17  1  0
 17 18  2  0
 18 19  1  0
 19 20  2  0
 20 21  1  0
 21 22  2  0
 22  5  1  0
 15  9  1  0
 22 17  1  0
M  END
$$$$
