
     RDKit          3D

 23 24  0  0  0  0  0  0  0  0999 V2000
   -7.2457  -11.8888  -61.9375 C   0  0  0  0  0  0  0  0  0  0  0  0
   -6.1598  -10.9837  -62.0080 O   0  0  0  0  0  0  0  0  0  0  0  0
   -6.0041   -9.9742  -61.1001 C   0  0  0  0  0  0  0  0  0  0  0  0
   -6.8329   -9.8602  -60.1619 O   0  0  0  0  0  0  0  0  0  0  0  0
   -4.8907   -9.0070  -61.1824 C   0  0  0  0  0  0  0  0  0  0  0  0
   -4.0784   -8.9397  -62.2861 C   0  0  0  0  0  0  0  0  0  0  0  0
   -3.0456   -8.0346  -62.3495 C   0  0  0  0  0  0  0  0  0  0  0  0
   -2.8037   -7.1687  -61.2951 C   0  0  0  0  0  0  0  0  0  0  0  0
   -1.7017   -6.2524  -61.4436 C   0  0  0  0  0  0  0  0  0  0  0  0
   -1.5456   -5.5723  -62.5127 O   0  0  0  0  0  0  0  0  0  0  0  0
   -0.7368   -6.0796  -60.3747 C   0  0  0  0  0  0  0  0  0  0  0  0
   -0.6615   -4.9679  -59.6641 C   0  0  0  0  0  0  0  0  0  0  0  0
    0.1024   -4.8285  -58.4463 C   0  0  0  0  0  0  0  0  0  0  0  0
    1.0657   -3.8333  -58.3601 C   0  0  0  0  0  0  0  0  0  0  0  0
    1.8232   -3.6578  -57.2186 C   0  0  0  0  0  0  0  0  0  0  0  0
    1.6365   -4.4871  -56.1097 C   0  0  0  0  0  0  0  0  0  0  0  0
    2.3997   -4.3112  -54.9580 O   0  0  0  0  0  0  0  0  0  0  0  0
    0.6927   -5.4638  -56.1914 C   0  0  0  0  0  0  0  0  0  0  0  0
    0.5081   -6.2899  -55.0842 O   0  0  0  0  0  0  0  0  0  0  0  0
   -0.5498   -7.2169  -54.9911 C   0  0  0  0  0  0  0  0  0  0  0  0
   -0.0668   -5.6333  -57.3474 C   0  0  0  0  0  0  0  0  0  0  0  0
   -3.5953   -7.2158  -60.1893 C   0  0  0  0  0  0  0  0  0  0  0  0
   -4.6364   -8.1490  -60.1594 C   0  0  0  0  0  0  0  0  0  0  0  0
  1  2  1  0
  2  3  1  0
  3  4  2  0
  3  5  1  0
  5  6  2  0
  6  7  1  0
  7  8  2  0
  8  9  1  0
  9 10  2  0
  9 11  1  0
 11 12  2  3
 12 13  1  0
 13 14  2  0
 14 15  1  0
 15 16  2  0
 16 17  1  0
 16 18  1  0
 18 19  1  0
 19 20  1  0
 18 21  2  0
  8 22  1  0
 22 23  2  0
 23  5  1  0
 21 13  1  0
M  END
$$$$
