
     RDKit          3D

 22 23  0  0  0  0  0  0  0  0999 V2000
   -1.4170   26.4903   14.7491 C   0  0  0  0  0  0  0  0  0  0  0  0
   -2.3760   25.8404   14.0999 C   0  0  0  0  0  0  0  0  0  0  0  0
   -2.9782   26.2271   12.8544 N   0  0  0  0  0  2  0  0  0  0  0  0
   -3.2859   24.9576   12.2678 C   0  0  0  0  0  0  0  0  0  0  0  0
   -3.2990   24.6998   10.9696 C   0  0  0  0  0  0  0  0  0  0  0  0
   -4.0618   23.6083   10.4733 N   0  0  0  0  0  0  0  0  0  0  0  0
   -4.9027   23.8371    9.3581 C   0  0  0  0  0  0  0  0  0  0  0  0
   -5.5413   22.4653    8.4851 Cl  0  0  0  0  0  0  0  0  0  0  0  0
   -5.1585   25.0541    9.0369 N   0  0  0  0  0  0  0  0  0  0  0  0
   -6.5039   25.3643    8.7103 C   0  0  0  0  0  0  0  0  0  0  0  0
   -7.5440   24.4475    8.7434 C   0  0  0  0  0  0  0  0  0  0  0  0
   -8.8338   24.8003    8.4147 C   0  0  0  0  0  0  0  0  0  0  0  0
   -9.1560   26.0651    8.0403 C   0  0  0  0  0  0  0  0  0  0  0  0
   -8.1234   27.0095    7.9991 C   0  0  0  0  0  0  0  0  0  0  0  0
   -6.8250   26.6476    8.3316 C   0  0  0  0  0  0  0  0  0  0  0  0
   -5.7213   27.6692    8.2861 C   0  0  0  0  0  0  0  0  0  0  0  0
   -5.7812   28.4265    9.5944 C   0  0  0  0  0  0  0  0  0  0  0  0
   -4.7453   29.5047    9.6903 C   0  0  0  0  0  0  0  0  0  0  0  0
   -4.9040   30.3407    8.5865 O   0  0  0  0  0  0  0  0  0  0  0  0
   -3.5632   24.0800   13.3957 C   0  0  0  0  0  0  0  0  0  0  0  0
   -3.0200   24.5998   14.5093 C   0  0  0  0  0  0  0  0  0  0  0  0
   -3.0648   23.9394   16.1323 Cl  0  0  0  0  0  0  0  0  0  0  0  0
  1  2  2  0
  2  3  1  0
  3  4  1  0
  4  5  2  3
  5  6  1  0
  6  7  1  0
  7  8  1  0
  7  9  2  3
  9 10  1  0
 10 11  2  0
 11 12  1  0
 12 13  2  0
 13 14  1  0
 14 15  2  0
 15 16  1  0
 16 17  1  0
 17 18  1  0
 18 19  1  0
  4 20  1  0
 20 21  2  0
 21 22  1  0
 21  2  1  0
 15 10  1  0
M  CHG  1   3   1
M  RAD  1   3   3
M  END
$$$$
