
     RDKit          3D

 22 23  0  0  0  0  0  0  0  0999 V2000
    6.9372   33.7401   20.1870 C   0  0  0  0  0  0  0  0  0  0  0  0
    8.2096   33.3626   20.2320 C   0  0  0  0  0  0  0  0  0  0  0  0
    9.3113   34.1309   20.7412 N   0  0  0  0  0  2  0  0  0  0  0  0
   10.1694   33.1092   21.2610 C   0  0  0  0  0  0  0  0  0  0  0  0
   10.9775   33.2470   22.3003 C   0  0  0  0  0  0  0  0  0  0  0  0
   10.7241   32.5190   23.4941 N   0  0  0  0  0  0  0  0  0  0  0  0
   11.5560   32.7649   24.6124 C   0  0  0  0  0  0  0  0  0  0  0  0
   12.9208   33.8401   24.4308 Cl  0  0  0  0  0  0  0  0  0  0  0  0
   11.2660   32.1798   25.7184 N   0  0  0  0  0  0  0  0  0  0  0  0
   12.1510   32.3875   26.8077 C   0  0  0  0  0  0  0  0  0  0  0  0
   11.9148   33.2793   27.8433 C   0  0  0  0  0  0  0  0  0  0  0  0
   12.8088   33.4446   28.8775 C   0  0  0  0  0  0  0  0  0  0  0  0
   13.9697   32.7430   28.9384 C   0  0  0  0  0  0  0  0  0  0  0  0
   14.2313   31.8360   27.9047 C   0  0  0  0  0  0  0  0  0  0  0  0
   13.3261   31.6738   26.8646 C   0  0  0  0  0  0  0  0  0  0  0  0
   13.6144   30.6957   25.7583 C   0  0  0  0  0  0  0  0  0  0  0  0
   14.1420   29.4413   26.4192 C   0  0  0  0  0  0  0  0  0  0  0  0
   14.5219   28.3797   25.4326 C   0  0  0  0  0  0  0  0  0  0  0  0
   15.2390   28.9943   24.4077 O   0  0  0  0  0  0  0  0  0  0  0  0
    9.9388   31.9540   20.4057 C   0  0  0  0  0  0  0  0  0  0  0  0
    8.7589   32.0925   19.7777 C   0  0  0  0  0  0  0  0  0  0  0  0
    8.0140   30.9861   18.6406 Cl  0  0  0  0  0  0  0  0  0  0  0  0
  1  2  2  0
  2  3  1  0
  3  4  1  0
  4  5  2  3
  5  6  1  0
  6  7  1  0
  7  8  1  0
  7  9  2  3
  9 10  1  0
 10 11  2  0
 11 12  1  0
 12 13  2  0
 13 14  1  0
 14 15  2  0
 15 16  1  0
 16 17  1  0
 17 18  1  0
 18 19  1  0
  4 20  1  0
 20 21  2  0
 21 22  1  0
 21  2  1  0
 15 10  1  0
M  CHG  1   3   1
M  RAD  1   3   3
M  END
$$$$
