
     RDKit          3D

 17 17  0  0  0  0  0  0  0  0999 V2000
    2.6686    4.3599    2.7993 C   0  0  0  0  0  1  0  0  0  0  0  0
    4.1479    4.7621    2.7708 C   0  0  0  0  0  0  0  0  0  0  0  0
    4.3374    5.7934    1.7498 N   0  0  0  0  0  0  0  0  0  0  0  0
    5.4725    6.4063    1.7405 C   0  0  0  0  0  0  0  0  0  0  0  0
    5.7648    7.2671    0.6460 N   0  0  0  0  0  0  0  0  0  0  0  0
    7.0661    7.8496    0.5551 C   0  0  0  0  0  0  0  0  0  0  0  0
    7.7970    7.4613   -0.7111 C   0  0  0  0  0  0  0  0  0  0  0  0
    8.4407    6.2200   -0.5520 O   0  0  0  0  0  0  0  0  0  0  0  0
    4.9019    3.5712    2.4343 N   0  0  0  0  0  0  0  0  0  0  0  0
    6.2322    3.3653    2.9091 C   0  0  0  0  0  0  0  0  0  0  0  0
    6.5447    3.7194    4.2072 C   0  0  0  0  0  0  0  0  0  0  0  0
    7.8081    3.5405    4.7142 C   0  0  0  0  0  0  0  0  0  0  0  0
    8.8087    3.0050    3.9566 C   0  0  0  0  0  0  0  0  0  0  0  0
   10.4088    2.7821    4.6095 Cl  0  0  0  0  0  0  0  0  0  0  0  0
    8.4997    2.6475    2.6515 C   0  0  0  0  0  0  0  0  0  0  0  0
    7.2204    2.8230    2.1218 C   0  0  0  0  0  0  0  0  0  0  0  0
    6.8779    2.3568    0.4683 Cl  0  0  0  0  0  0  0  0  0  0  0  0
  1  2  1  0
  2  3  1  0
  3  4  2  3
  4  5  1  0
  5  6  1  0
  6  7  1  0
  7  8  1  0
  2  9  1  0
  9 10  1  0
 10 11  2  0
 11 12  1  0
 12 13  2  0
 13 14  1  0
 13 15  1  0
 15 16  2  0
 16 17  1  0
 16 10  1  0
M  CHG  1   1  -1
M  RAD  1   1   3
M  END
$$$$
