
     RDKit          3D

 20 21  0  0  0  0  0  0  0  0999 V2000
    7.6062    9.7040    2.3901 O   0  0  0  0  0  0  0  0  0  0  0  0
    7.6155    8.9885    3.4228 C   0  0  0  0  0  0  0  0  0  0  0  0
    6.4235    8.4687    3.9069 O   0  0  0  0  0  0  0  0  0  0  0  0
    8.8952    8.7278    4.0826 C   0  0  0  0  0  0  0  0  0  0  0  0
    9.4865    9.6653    4.8784 C   0  0  0  0  0  0  0  0  0  0  0  0
   10.6727    9.4349    5.4952 C   0  0  0  0  0  0  0  0  0  0  0  0
   11.2811    8.2001    5.2935 C   0  0  0  0  0  0  0  0  0  0  0  0
   10.7240    7.2184    4.4981 C   0  0  0  0  0  0  0  0  0  0  0  0
   11.4286    5.9239    4.3249 C   0  0  0  0  0  0  0  0  0  0  0  0
   10.7431    5.0660    3.6677 O   0  0  0  0  0  0  0  0  0  0  0  0
   12.7258    5.6894    4.8441 C   0  0  0  0  0  0  0  0  0  0  0  0
   13.5053    4.7151    4.8893 C   0  0  0  0  0  0  0  0  0  0  0  0
   14.7954    4.3940    4.3612 C   0  0  0  0  0  0  0  0  0  0  0  0
   15.5978    5.1684    3.5704 C   0  0  0  0  0  0  0  0  0  0  0  0
   16.8750    4.7646    3.2083 C   0  0  0  0  0  0  0  0  0  0  0  0
   17.3651    3.5664    3.6377 C   0  0  0  0  0  0  0  0  0  0  0  0
   16.6068    2.7403    4.4333 C   0  0  0  0  0  0  0  0  0  0  0  0
   17.1138    1.5011    4.8756 O   0  0  0  0  0  0  0  0  0  0  0  0
   15.3528    3.1564    4.7798 C   0  0  0  0  0  0  0  0  0  0  0  0
    9.5309    7.4969    3.8993 C   0  0  0  0  0  0  0  0  0  0  0  0
  1  2  2  0
  2  3  1  0
  2  4  1  0
  4  5  2  0
  5  6  1  0
  6  7  2  0
  7  8  1  0
  8  9  1  0
  9 10  2  0
  9 11  1  0
 11 12  2  3
 12 13  1  0
 13 14  2  0
 14 15  1  0
 15 16  2  0
 16 17  1  0
 17 18  1  0
 17 19  2  0
  8 20  2  0
 20  4  1  0
 19 13  1  0
M  END
$$$$
