
     RDKit          3D

 22 23  0  0  0  0  0  0  0  0999 V2000
  129.7175  140.0375  137.8087 C   0  0  0  0  0  0  0  0  0  0  0  0
  129.3150  138.9705  138.4627 C   0  0  0  0  0  0  0  0  0  0  0  0
  129.1148  137.6886  137.7296 C   0  0  0  0  0  0  0  0  0  0  0  0
  129.0498  138.9904  139.9059 C   0  0  0  0  0  0  0  0  0  0  0  0
  128.5616  137.6441  140.3905 C   0  0  0  0  0  0  0  0  0  0  0  0
  128.4620  137.6963  141.8649 C   0  0  0  0  0  0  0  0  0  0  0  0
  128.6280  138.7685  142.4823 O   0  0  0  0  0  0  0  0  0  0  0  0
  128.1749  136.5209  142.5994 N   0  0  0  0  0  0  0  0  0  0  0  0
  127.6396  136.6759  143.9288 C   0  0  0  0  0  0  0  0  0  0  0  0
  126.8342  135.8557  144.5977 N   0  0  0  0  0  0  0  0  0  0  0  0
  126.4620  136.1556  145.7648 N   0  0  0  0  0  0  0  0  0  0  0  0
  126.8734  137.2881  146.3247 C   0  0  0  0  0  0  0  0  0  0  0  0
  126.5539  137.8325  147.6885 C   0  0  0  0  0  0  0  0  0  0  0  0
  126.9665  139.2783  147.6863 C   0  0  0  0  0  0  0  0  0  0  0  0
  127.7745  139.8096  148.6677 C   0  0  0  0  0  0  0  0  0  0  0  0
  128.1625  141.1410  148.6773 C   0  0  0  0  0  0  0  0  0  0  0  0
  128.9751  141.6595  149.6710 O   0  0  0  0  0  0  0  0  0  0  0  0
  129.0785  140.9410  150.8842 C   0  0  0  0  0  0  0  0  0  0  0  0
  127.7014  141.9314  147.6480 C   0  0  0  0  0  0  0  0  0  0  0  0
  126.8945  141.4468  146.6482 C   0  0  0  0  0  0  0  0  0  0  0  0
  126.5344  140.1215  146.6777 C   0  0  0  0  0  0  0  0  0  0  0  0
  127.8515  137.9322  145.0672 S   0  0  0  0  0  0  0  0  0  0  0  0
  1  2  2  0
  2  3  1  0
  2  4  1  0
  4  5  1  0
  5  6  1  0
  6  7  2  0
  6  8  1  0
  8  9  1  0
  9 10  2  0
 10 11  1  0
 11 12  2  0
 12 13  1  0
 13 14  1  0
 14 15  2  0
 15 16  1  0
 16 17  1  0
 17 18  1  0
 16 19  2  0
 19 20  1  0
 20 21  2  0
 12 22  1  0
 22  9  1  0
 21 14  1  0
M  END
$$$$
