
     RDKit          3D

 22 23  0  0  0  0  0  0  0  0999 V2000
  129.0215  137.8718  138.8063 C   0  0  0  0  0  0  0  0  0  0  0  0
  128.8042  137.5274  140.0563 C   0  0  0  0  0  0  0  0  0  0  0  0
  128.4220  136.1235  140.3781 C   0  0  0  0  0  0  0  0  0  0  0  0
  128.9232  138.4829  141.1637 C   0  0  0  0  0  0  0  0  0  0  0  0
  128.2975  137.9362  142.4268 C   0  0  0  0  0  0  0  0  0  0  0  0
  128.4975  138.9291  143.5041 C   0  0  0  0  0  0  0  0  0  0  0  0
  128.8904  140.0857  143.2468 O   0  0  0  0  0  0  0  0  0  0  0  0
  128.2436  138.5764  144.8512 N   0  0  0  0  0  0  0  0  0  0  0  0
  127.5410  139.5303  145.6722 C   0  0  0  0  0  0  0  0  0  0  0  0
  126.6893  139.2977  146.6670 N   0  0  0  0  0  0  0  0  0  0  0  0
  126.1634  140.2652  147.2818 N   0  0  0  0  0  0  0  0  0  0  0  0
  126.4593  141.5137  146.9366 C   0  0  0  0  0  0  0  0  0  0  0  0
  125.9520  142.7980  147.5295 C   0  0  0  0  0  0  0  0  0  0  0  0
  126.9817  143.2523  148.5264 C   0  0  0  0  0  0  0  0  0  0  0  0
  127.4735  142.4142  149.5031 C   0  0  0  0  0  0  0  0  0  0  0  0
  128.4233  142.8206  150.4284 C   0  0  0  0  0  0  0  0  0  0  0  0
  128.9074  141.9658  151.4039 O   0  0  0  0  0  0  0  0  0  0  0  0
  129.4070  142.5371  152.5967 C   0  0  0  0  0  0  0  0  0  0  0  0
  128.8678  144.1207  150.3345 C   0  0  0  0  0  0  0  0  0  0  0  0
  128.4071  144.9923  149.3786 C   0  0  0  0  0  0  0  0  0  0  0  0
  127.4662  144.5479  148.4819 C   0  0  0  0  0  0  0  0  0  0  0  0
  127.5624  141.2386  145.6480 S   0  0  0  0  0  0  0  0  0  0  0  0
  1  2  2  0
  2  3  1  0
  2  4  1  0
  4  5  1  0
  5  6  1  0
  6  7  2  0
  6  8  1  0
  8  9  1  0
  9 10  2  0
 10 11  1  0
 11 12  2  0
 12 13  1  0
 13 14  1  0
 14 15  2  0
 15 16  1  0
 16 17  1  0
 17 18  1  0
 16 19  2  0
 19 20  1  0
 20 21  2  0
 12 22  1  0
 22  9  1  0
 21 14  1  0
M  END
$$$$
