
     RDKit          3D

 21 22  0  0  0  0  0  0  0  0999 V2000
  125.2011  145.9467  141.9813 C   0  0  0  0  0  0  0  0  0  0  0  0
  126.0345  144.7219  142.0903 C   0  0  0  0  0  0  0  0  0  0  0  0
  126.6644  144.4201  143.2130 C   0  0  0  0  0  0  0  0  0  0  0  0
  126.0784  143.4049  144.1696 C   0  0  0  0  0  0  0  0  0  0  0  0
  126.4263  142.0428  143.7045 C   0  0  0  0  0  0  0  0  0  0  0  0
  127.1272  141.2009  144.6838 C   0  0  0  0  0  0  0  0  0  0  0  0
  127.5350  139.8639  144.4028 N   0  0  0  0  0  0  0  0  0  0  0  0
  127.1568  139.1655  143.1926 C   0  0  0  0  0  0  0  0  0  0  0  0
  128.1009  138.0224  142.9120 C   0  0  0  0  0  0  0  0  0  0  0  0
  128.7915  138.3450  141.7388 O   0  0  0  0  0  0  0  0  0  0  0  0
  127.4197  141.6170  145.8636 N   0  0  0  0  0  0  0  0  0  0  0  0
  127.0848  142.9194  146.3007 C   0  0  0  0  0  0  0  0  0  0  0  0
  127.4096  143.3802  147.6089 N   0  0  0  0  0  0  0  0  0  0  0  0
  126.9484  144.6716  148.0466 C   0  0  0  0  0  0  0  0  0  0  0  0
  127.2306  145.1219  149.2409 C   0  0  0  0  0  0  0  0  0  0  0  0
  126.7689  146.4575  149.7298 C   0  0  0  0  0  0  0  0  0  0  0  0
  128.0185  144.3208  150.1501 C   0  0  0  0  0  0  0  0  0  0  0  0
  128.4062  144.9174  151.7648 Cl  0  0  0  0  0  0  0  0  0  0  0  0
  128.4588  143.1285  149.7804 C   0  0  0  0  0  0  0  0  0  0  0  0
  128.1944  142.5310  148.4544 C   0  0  0  0  0  0  0  0  0  0  0  0
  126.4759  143.7021  145.5026 N   0  0  0  0  0  0  0  0  0  0  0  0
  1  2  1  0
  2  3  2  3
  3  4  1  0
  4  5  1  0
  5  6  1  0
  6  7  1  0
  7  8  1  0
  8  9  1  0
  9 10  1  0
  6 11  2  0
 11 12  1  0
 12 13  1  0
 13 14  1  0
 14 15  2  0
 15 16  1  0
 15 17  1  0
 17 18  1  0
 17 19  2  0
 19 20  1  0
 12 21  2  0
 21  4  1  0
 20 13  1  0
M  END
$$$$
