
     RDKit          3D

 19 21  0  0  0  0  0  0  0  0999 V2000
  129.9713  140.7223  138.7912 C   0  0  0  0  0  0  0  0  0  0  0  0
  129.4058  139.4655  139.3561 C   0  0  0  0  0  0  0  0  0  0  0  0
  128.8277  139.4232  140.6064 C   0  0  0  0  0  0  0  0  0  0  0  0
  128.3017  138.2702  141.1471 C   0  0  0  0  0  0  0  0  0  0  0  0
  127.6917  138.1691  142.4115 N   0  0  0  0  0  0  0  0  0  0  0  0
  127.5693  139.2605  143.3152 C   0  0  0  0  0  0  0  0  0  0  0  0
  127.3178  140.5377  142.8631 C   0  0  0  0  0  0  0  0  0  0  0  0
  127.2067  141.6118  143.7301 C   0  0  0  0  0  0  0  0  0  0  0  0
  127.3440  141.4473  145.0939 C   0  0  0  0  0  0  0  0  0  0  0  0
  127.2292  142.6035  146.0406 C   0  0  0  0  0  0  0  0  0  0  0  0
  127.5960  140.1705  145.5546 C   0  0  0  0  0  0  0  0  0  0  0  0
  127.7871  139.9475  147.4466 Br  0  0  0  0  0  0  0  0  0  0  0  0
  127.7069  139.0923  144.6761 C   0  0  0  0  0  0  0  0  0  0  0  0
  128.3760  137.1529  140.3846 N   0  0  0  0  0  0  0  0  0  0  0  0
  127.9939  135.8993  140.5470 N   0  0  0  0  0  0  0  0  0  0  0  0
  128.3022  135.1652  139.4698 C   0  0  0  0  0  0  0  0  0  0  0  0
  128.9024  135.9722  138.5861 N   0  0  0  0  0  0  0  0  0  0  0  0
  128.9461  137.1836  139.1453 C   0  0  0  0  0  0  0  0  0  0  0  0
  129.4488  138.3253  138.6505 N   0  0  0  0  0  0  0  0  0  0  0  0
  1  2  1  0
  2  3  1  0
  3  4  2  0
  4  5  1  0
  5  6  1  0
  6  7  2  0
  7  8  1  0
  8  9  2  0
  9 10  1  0
  9 11  1  0
 11 12  1  0
 11 13  2  0
  4 14  1  0
 14 15  1  0
 15 16  2  0
 16 17  1  0
 17 18  2  0
 18 19  1  0
 19  2  2  0
 13  6  1  0
 18 14  1  0
M  END
$$$$
