
     RDKit          3D

 22 24  0  0  0  0  0  0  0  0999 V2000
    1.9156   31.7210   -5.6021 O   0  0  0  0  0  0  0  0  0  0  0  0
    2.6762   30.9333   -4.9698 C   0  0  0  0  0  0  0  0  0  0  0  0
    2.8596   29.6310   -5.4675 N   0  0  0  0  0  0  0  0  0  0  0  0
    2.0171   29.0827   -6.5044 C   0  0  0  0  0  0  0  0  0  0  0  0
    1.9721   27.8824   -7.0431 N   0  0  0  0  0  0  0  0  0  0  0  0
    1.1112   27.6282   -7.9763 C   0  0  0  0  0  0  0  0  0  0  0  0
    1.0098   26.2970   -8.6232 C   0  0  0  0  0  0  0  0  0  0  0  0
    0.1763   26.0873   -9.6942 C   0  0  0  0  0  0  0  0  0  0  0  0
    0.0558   24.8625  -10.3217 C   0  0  0  0  0  0  0  0  0  0  0  0
    0.8012   23.8138   -9.8530 C   0  0  0  0  0  0  0  0  0  0  0  0
    1.6296   24.0380   -8.7823 C   0  0  0  0  0  0  0  0  0  0  0  0
    1.7200   25.2424   -8.1986 N   0  0  0  0  0  0  0  0  0  0  0  0
    0.2717   28.6451   -8.3643 C   0  0  0  0  0  0  0  0  0  0  0  0
    0.7901   29.9161   -7.3410 S   0  0  0  0  0  0  0  0  0  0  0  0
    3.3499   31.3540   -3.7559 C   0  0  0  0  0  0  0  0  0  0  0  0
    3.4078   32.6308   -3.2713 C   0  0  0  0  0  0  0  0  0  0  0  0
    4.0756   32.9452   -2.0994 C   0  0  0  0  0  0  0  0  0  0  0  0
    4.7206   31.9577   -1.3632 C   0  0  0  0  0  0  0  0  0  0  0  0
    5.3919   32.2649   -0.1878 O   0  0  0  0  0  0  0  0  0  0  0  0
    4.6728   30.6683   -1.8353 C   0  0  0  0  0  0  0  0  0  0  0  0
    5.4818   29.4182   -0.9154 Cl  0  0  0  0  0  0  0  0  0  0  0  0
    4.0033   30.3736   -3.0040 C   0  0  0  0  0  0  0  0  0  0  0  0
  1  2  2  0
  2  3  1  0
  3  4  1  0
  4  5  2  0
  5  6  1  0
  6  7  1  0
  7  8  2  0
  8  9  1  0
  9 10  2  0
 10 11  1  0
 11 12  2  0
  6 13  2  0
 13 14  1  0
  2 15  1  0
 15 16  2  0
 16 17  1  0
 17 18  2  0
 18 19  1  0
 18 20  1  0
 20 21  1  0
 20 22  2  0
 14  4  1  0
 22 15  1  0
 12  7  1  0
M  END
$$$$
