
     RDKit          3D

 22 24  0  0  0  0  0  0  0  0999 V2000
    1.2994   -4.3576  -54.3494 N   0  0  0  0  0  0  0  0  0  0  0  0
    1.0893   -4.6257  -55.7492 C   0  0  0  0  0  0  0  0  0  0  0  0
    1.7425   -3.8849  -56.7039 C   0  0  0  0  0  0  0  0  0  0  0  0
    1.5410   -4.1529  -58.0398 C   0  0  0  0  0  0  0  0  0  0  0  0
    0.6825   -5.1671  -58.4802 C   0  0  0  0  0  0  0  0  0  0  0  0
    0.5437   -5.4027  -59.8683 N   0  0  0  0  0  0  0  0  0  0  0  0
   -0.4503   -6.3138  -60.3544 C   0  0  0  0  0  0  0  0  0  0  0  0
   -1.6066   -6.5558  -59.7294 N   0  0  0  0  0  0  0  0  0  0  0  0
   -2.4980   -7.4202  -60.2344 C   0  0  0  0  0  0  0  0  0  0  0  0
   -3.7960   -7.7257  -59.5647 C   0  0  0  0  0  0  0  0  0  0  0  0
   -3.9443   -7.0708  -58.2241 C   0  0  0  0  0  0  0  0  0  0  0  0
   -4.6646   -7.8656  -57.3410 O   0  0  0  0  0  0  0  0  0  0  0  0
   -2.2526   -8.0941  -61.4247 C   0  0  0  0  0  0  0  0  0  0  0  0
   -3.1588   -9.0005  -61.9761 C   0  0  0  0  0  0  0  0  0  0  0  0
   -2.8155   -9.6162  -63.1584 C   0  0  0  0  0  0  0  0  0  0  0  0
   -1.6376   -9.3976  -63.8339 C   0  0  0  0  0  0  0  0  0  0  0  0
   -0.7593   -8.4929  -63.2619 C   0  0  0  0  0  0  0  0  0  0  0  0
   -1.0539   -7.8363  -62.0612 C   0  0  0  0  0  0  0  0  0  0  0  0
   -0.2096   -6.9665  -61.5077 N   0  0  0  0  0  0  0  0  0  0  0  0
    0.0313   -5.9042  -57.5183 C   0  0  0  0  0  0  0  0  0  0  0  0
    0.2439   -5.6246  -56.1784 C   0  0  0  0  0  0  0  0  0  0  0  0
   -0.5842   -6.5746  -54.9492 Cl  0  0  0  0  0  0  0  0  0  0  0  0
  1  2  1  0
  2  3  2  0
  3  4  1  0
  4  5  2  0
  5  6  1  0
  6  7  1  0
  7  8  2  0
  8  9  1  0
  9 10  1  0
 10 11  1  0
 11 12  1  0
  9 13  2  0
 13 14  1  0
 14 15  2  0
 15 16  1  0
 16 17  2  0
 17 18  1  0
 18 19  2  0
  5 20  1  0
 20 21  2  0
 21 22  1  0
 21  2  1  0
 19  7  1  0
 18 13  1  0
M  END
$$$$
