
     RDKit          3D

 20 20  0  0  0  0  0  0  0  0999 V2000
    7.3394    6.4226  -20.3053 Cl  0  0  0  0  0  0  0  0  0  0  0  0
    7.3150    6.1449  -22.0454 C   0  0  0  0  0  0  0  0  0  0  0  0
    7.1844    7.1885  -22.8227 C   0  0  0  0  0  0  0  0  0  0  0  0
    7.1082    7.0960  -24.2732 C   0  0  0  0  0  0  0  0  0  0  0  0
    6.9586    8.1677  -25.0335 C   0  0  0  0  0  0  0  0  0  0  0  0
    6.9061    9.4815  -24.4976 N   0  0  0  0  0  0  0  0  0  0  0  0
    6.3191   10.5042  -25.2894 C   0  0  0  0  0  0  0  0  0  0  0  0
    5.7683   11.4979  -24.6807 N   0  0  0  0  0  0  0  0  0  0  0  0
    5.3842   12.6169  -25.4544 C   0  0  0  0  0  0  0  0  0  0  0  0
    5.4333   12.6296  -26.8418 C   0  0  0  0  0  0  0  0  0  0  0  0
    5.0509   13.7347  -27.5662 C   0  0  0  0  0  0  0  0  0  0  0  0
    4.6036   14.8752  -26.9504 C   0  0  0  0  0  0  0  0  0  0  0  0
    4.5510   14.8711  -25.5558 C   0  0  0  0  0  0  0  0  0  0  0  0
    4.9383   13.7511  -24.8182 C   0  0  0  0  0  0  0  0  0  0  0  0
    4.8816   13.7454  -23.3322 C   0  0  0  0  0  0  0  0  0  0  0  0
    3.3530   12.4224  -22.6299 I   0  0  0  0  0  0  0  0  0  0  0  0
    6.8481    8.0128  -26.4048 O   0  0  0  0  0  0  0  0  0  0  0  0
    6.5717    6.8037  -27.0131 C   0  0  0  0  0  0  0  0  0  0  0  0
    5.7636    6.7564  -28.0585 C   0  0  0  0  0  0  0  0  0  0  0  0
    5.5002    5.2642  -28.9331 Cl  0  0  0  0  0  0  0  0  0  0  0  0
  1  2  1  0
  2  3  2  3
  3  4  1  0
  4  5  2  3
  5  6  1  0
  6  7  1  0
  7  8  2  3
  8  9  1  0
  9 10  2  0
 10 11  1  0
 11 12  2  0
 12 13  1  0
 13 14  2  0
 14 15  1  0
 15 16  1  0
  5 17  1  0
 17 18  1  0
 18 19  2  3
 19 20  1  0
 14  9  1  0
M  END
$$$$
