
     RDKit          3D

 33 36  0  0  0  0  0  0  0  0999 V2000
   -5.3757  -14.1389  -61.1350 C   0  0  0  0  0  0  0  0  0  0  0  0
   -4.5318  -12.8994  -61.0824 C   0  0  0  0  0  0  0  0  0  0  0  0
   -4.3801  -12.1913  -62.3981 C   0  0  1  0  0  0  0  0  0  0  0  0
   -3.4276  -11.0328  -62.3513 C   0  0  0  0  0  0  0  0  0  0  0  0
   -3.7603  -10.0750  -61.2490 C   0  0  0  0  0  0  0  0  0  0  0  0
   -2.7908   -8.8736  -61.2577 C   0  0  1  0  0  0  0  0  0  0  0  0
   -2.8231   -8.3785  -62.6645 C   0  0  0  0  0  0  0  0  0  0  0  0
   -3.2574   -7.9722  -60.1988 C   0  0  1  0  0  0  0  0  0  0  0  0
   -2.3099   -6.7544  -60.2108 C   0  0  0  0  0  0  0  0  0  0  0  0
   -3.1180   -5.5995  -59.6273 C   0  0  0  0  0  0  0  0  0  0  0  0
   -4.3622   -6.2767  -59.2068 C   0  0  1  0  0  0  0  0  0  0  0  0
   -5.5294   -5.4203  -58.9022 C   0  0  2  0  0  0  0  0  0  0  0  0
   -5.0928   -4.4857  -57.8047 C   0  0  0  0  0  0  0  0  0  0  0  0
   -6.2400   -3.9574  -57.0685 C   0  0  0  0  0  0  0  0  0  0  0  0
   -7.4584   -4.4651  -57.1140 C   0  0  0  0  0  0  0  0  0  0  0  0
   -8.5267   -3.8222  -56.3101 C   0  0  0  0  0  0  0  0  0  0  0  0
   -9.0658   -4.9304  -55.4202 C   0  0  1  0  0  0  0  0  0  0  0  0
   -9.8491   -4.4620  -54.3733 O   0  0  0  0  0  0  0  0  0  0  0  0
  -11.2272   -4.6535  -54.3045 C   0  0  0  0  0  0  0  0  0  0  0  0
  -12.2116   -3.5525  -54.3397 C   0  0  0  0  0  0  0  0  0  0  0  0
  -11.6236   -5.8367  -54.2081 O   0  0  0  0  0  0  0  0  0  0  0  0
   -9.7014   -5.9588  -56.2856 C   0  0  0  0  0  0  0  0  0  0  0  0
   -8.6269   -6.6522  -57.0948 C   0  0  0  0  0  0  0  0  0  0  0  0
   -7.8284   -5.6470  -57.9197 C   0  0  1  0  0  0  0  0  0  0  0  0
   -8.7371   -5.1857  -59.0384 C   0  0  0  0  0  0  0  0  0  0  0  0
   -6.6357   -6.3753  -58.4645 C   0  0  1  0  0  0  0  0  0  0  0  0
   -6.9714   -7.1984  -59.6796 C   0  0  0  0  0  0  0  0  0  0  0  0
   -5.7932   -8.0460  -60.1082 C   0  0  0  0  0  0  0  0  0  0  0  0
   -4.5599   -7.2670  -60.3534 C   0  0  2  0  0  0  0  0  0  0  0  0
   -4.6495   -6.4840  -61.6456 C   0  0  0  0  0  0  0  0  0  0  0  0
   -4.1343  -13.1036  -63.5650 C   0  0  0  0  0  0  0  0  0  0  0  0
   -2.6827  -13.4842  -63.6918 C   0  0  0  0  0  0  0  0  0  0  0  0
   -4.6865  -12.6252  -64.8681 C   0  0  0  0  0  0  0  0  0  0  0  0
  1  2  1  0
  3  2  1  1
  3  4  1  0
  4  5  1  0
  5  6  1  0
  6  7  1  6
  6  8  1  0
  8  9  1  6
  9 10  1  0
 11 10  1  6
 11 12  1  0
 12 13  1  1
 13 14  1  0
 14 15  2  0
 15 16  1  0
 16 17  1  0
 17 18  1  1
 18 19  1  0
 19 20  1  0
 19 21  2  0
 17 22  1  0
 22 23  1  0
 23 24  1  0
 24 25  1  6
 24 26  1  0
 26 27  1  6
 27 28  1  0
 28 29  1  0
 29 30  1  6
  3 31  1  0
 31 32  1  0
 31 33  1  0
 29  8  1  0
 29 11  1  0
 26 12  1  0
 24 15  1  0
M  END
$$$$
