
     RDKit          3D

 21 21  0  0  0  0  0  0  0  0999 V2000
  119.2849  151.6909  146.8843 C   0  0  0  0  0  0  0  0  0  0  0  0
  119.0083  150.7289  145.7504 C   0  0  0  0  0  0  0  0  0  0  0  0
  117.6847  150.1793  145.8082 N   0  0  0  0  0  0  0  0  0  0  0  0
  117.1976  149.3139  144.7921 C   0  0  0  0  0  0  0  0  0  0  0  0
  117.8428  149.2345  143.6216 N   0  0  0  0  0  0  0  0  0  0  0  0
  117.4185  148.4454  142.6185 C   0  0  0  0  0  0  0  0  0  0  0  0
  118.0976  148.3456  141.3644 N   0  0  0  0  0  0  0  0  0  0  0  0
  117.5835  147.3444  140.4436 C   0  0  0  0  0  0  0  0  0  0  0  0
  118.4806  147.2402  139.2197 C   0  0  0  0  0  0  0  0  0  0  0  0
  117.5233  146.9969  138.0994 C   0  0  0  0  0  0  0  0  0  0  0  0
  116.7575  146.8043  137.1728 C   0  0  0  0  0  0  0  0  0  0  0  0
  115.8335  146.5479  136.0642 C   0  0  0  0  0  0  0  0  0  0  0  0
  115.7302  147.6441  135.2183 O   0  0  0  0  0  0  0  0  0  0  0  0
  116.2941  147.7255  142.8532 N   0  0  0  0  0  0  0  0  0  0  0  0
  115.6063  147.7639  144.0054 C   0  0  0  0  0  0  0  0  0  0  0  0
  114.4375  146.9930  144.2265 N   0  0  0  0  0  0  0  0  0  0  0  0
  113.7142  146.9159  145.4582 C   0  0  0  0  0  0  0  0  0  0  0  0
  112.5201  146.0010  145.2535 C   0  0  0  0  0  0  0  0  0  0  0  0
  113.1423  148.2545  145.8847 C   0  0  0  0  0  0  0  0  0  0  0  0
  114.5962  146.3339  146.5376 C   0  0  0  0  0  0  0  0  0  0  0  0
  116.0789  148.5711  144.9695 N   0  0  0  0  0  0  0  0  0  0  0  0
  1  2  1  0
  2  3  1  0
  3  4  1  0
  4  5  2  0
  5  6  1  0
  6  7  1  0
  7  8  1  0
  8  9  1  0
  9 10  1  0
 10 11  3  0
 11 12  1  0
 12 13  1  0
  6 14  2  0
 14 15  1  0
 15 16  1  0
 16 17  1  0
 17 18  1  0
 17 19  1  0
 17 20  1  0
 15 21  2  0
 21  4  1  0
M  END
$$$$
