
     RDKit          3D

 26 28  0  0  0  0  0  0  0  0999 V2000
  165.2178  145.0963  158.9876 C   0  0  0  0  0  0  0  0  0  0  0  0
  166.4473  145.8817  159.3648 C   0  0  0  0  0  0  0  0  0  0  0  0
  167.2664  145.1385  160.4250 C   0  0  2  0  0  0  0  0  0  0  0  0
  168.1978  146.0358  160.9427 O   0  0  0  0  0  0  0  0  0  0  0  0
  167.9311  143.9764  159.8047 C   0  0  0  0  0  0  0  0  0  0  0  0
  169.0330  144.1429  159.2444 O   0  0  0  0  0  0  0  0  0  0  0  0
  167.3450  142.7332  159.8445 O   0  0  0  0  0  0  0  0  0  0  0  0
  167.9225  141.6423  159.2152 C   0  0  0  0  0  0  0  0  0  0  0  0
  168.4867  140.6475  159.9637 C   0  0  0  0  0  0  0  0  0  0  0  0
  168.4878  140.7186  161.3592 O   0  0  0  0  0  0  0  0  0  0  0  0
  169.0613  139.5628  159.3524 C   0  0  0  0  0  0  0  0  0  0  0  0
  169.0954  139.4286  157.9798 C   0  0  0  0  0  0  0  0  0  0  0  0
  168.5178  140.4472  157.2196 C   0  0  0  0  0  0  0  0  0  0  0  0
  168.5462  140.3236  155.8488 C   0  0  0  0  0  0  0  0  0  0  0  0
  169.0744  139.3269  155.2948 O   0  0  0  0  0  0  0  0  0  0  0  0
  167.9665  141.3471  155.1092 C   0  0  0  0  0  0  0  0  0  0  0  0
  167.9561  141.2911  153.6743 C   0  0  0  0  0  0  0  0  0  0  0  0
  167.3796  140.2206  153.0331 C   0  0  0  0  0  0  0  0  0  0  0  0
  167.3555  140.1404  151.6373 C   0  0  0  0  0  0  0  0  0  0  0  0
  167.9238  141.1602  150.8967 C   0  0  0  0  0  0  0  0  0  0  0  0
  167.9125  141.1034  149.4970 O   0  0  0  0  0  0  0  0  0  0  0  0
  168.5067  142.2421  151.5246 C   0  0  0  0  0  0  0  0  0  0  0  0
  168.5120  142.2879  152.9219 C   0  0  0  0  0  0  0  0  0  0  0  0
  167.4058  142.4107  155.8054 C   0  0  0  0  0  0  0  0  0  0  0  0
  167.4010  142.4877  157.1093 O   0  0  0  0  0  0  0  0  0  0  0  0
  167.9369  141.5430  157.8199 C   0  0  0  0  0  0  0  0  0  0  0  0
  1  2  1  0
  2  3  1  0
  3  4  1  6
  3  5  1  0
  5  6  2  0
  5  7  1  0
  7  8  1  0
  8  9  2  0
  9 10  1  0
  9 11  1  0
 11 12  2  0
 12 13  1  0
 13 14  1  0
 14 15  2  0
 14 16  1  0
 16 17  1  0
 17 18  2  0
 18 19  1  0
 19 20  2  0
 20 21  1  0
 20 22  1  0
 22 23  2  0
 16 24  2  0
 24 25  1  0
 25 26  1  0
 26  8  1  0
 26 13  2  0
 23 17  1  0
M  END
$$$$
