
     RDKit          3D

 18 19  0  0  0  0  0  0  0  0999 V2000
  148.7574  148.9557  146.2737 C   0  0  0  0  0  0  0  0  0  0  0  0
  149.7373  149.9033  145.5906 C   0  0  2  0  0  0  0  0  0  0  0  0
  150.3486  149.1647  144.4220 C   0  0  0  0  0  0  0  0  0  0  0  0
  151.3256  150.1292  143.7799 C   0  0  2  0  0  0  0  0  0  0  0  0
  151.6978  149.7684  142.5112 O   0  0  0  0  0  0  0  0  0  0  0  0
  152.5178  150.1651  144.7462 C   0  0  0  0  0  0  0  0  0  0  0  0
  152.0179  150.7555  145.9623 N   0  0  0  0  0  0  0  0  0  0  0  0
  152.8718  151.6635  146.6507 C   0  0  0  0  0  0  0  0  0  0  0  0
  152.4180  152.5391  147.4641 O   0  0  0  0  0  0  0  0  0  0  0  0
  154.3116  151.6590  146.4783 C   0  0  0  0  0  0  0  0  0  0  0  0
  154.9223  150.4735  146.1336 C   0  0  0  0  0  0  0  0  0  0  0  0
  156.2739  150.4391  145.9648 C   0  0  0  0  0  0  0  0  0  0  0  0
  157.0150  151.5763  146.1375 C   0  0  0  0  0  0  0  0  0  0  0  0
  158.3711  151.5347  145.9665 F   0  0  0  0  0  0  0  0  0  0  0  0
  156.3868  152.7513  146.4818 C   0  0  0  0  0  0  0  0  0  0  0  0
  155.0257  152.8184  146.6592 C   0  0  0  0  0  0  0  0  0  0  0  0
  154.2775  154.3322  147.0956 Cl  0  0  0  0  0  0  0  0  0  0  0  0
  150.7255  150.4917  146.5227 C   0  0  0  0  0  0  0  0  0  0  0  0
  2  1  1  1
  2  3  1  0
  3  4  1  0
  4  5  1  6
  4  6  1  0
  6  7  1  0
  7  8  1  0
  8  9  2  0
  8 10  1  0
 10 11  2  0
 11 12  1  0
 12 13  2  0
 13 14  1  0
 13 15  1  0
 15 16  2  0
 16 17  1  0
  7 18  1  0
 18  2  1  0
 16 10  1  0
M  END
$$$$
