
     RDKit          3D

 24 25  0  0  0  0  0  0  0  0999 V2000
   17.6755    5.8402    4.7410 C   0  0  0  0  0  0  0  0  0  0  0  0
   18.1109    6.8587    5.8102 C   0  0  0  0  0  0  0  0  0  0  0  0
   17.6490    6.3081    7.1120 C   0  0  0  0  0  0  0  0  0  0  0  0
   16.4514    6.9638    7.7175 C   0  0  0  0  0  0  0  0  0  0  0  0
   16.1897    6.6685    9.1459 C   0  0  0  0  0  0  0  0  0  0  0  0
   17.0447    7.2511   10.1807 C   0  0  0  0  0  0  0  0  0  0  0  0
   16.9137    8.6592   10.5701 C   0  0  0  0  0  0  0  0  0  0  0  0
   15.2420    6.5343    6.9634 C   0  0  0  0  0  0  0  0  0  0  0  0
   14.2619    6.0760    7.6199 O   0  0  0  0  0  0  0  0  0  0  0  0
   15.1286    6.6063    5.5835 O   0  0  0  0  0  0  0  0  0  0  0  0
   13.9582    6.1185    5.0077 C   0  0  0  0  0  0  0  0  0  0  0  0
   14.0235    4.9075    4.3562 C   0  0  0  0  0  0  0  0  0  0  0  0
   12.8716    4.4066    3.7780 C   0  0  0  0  0  0  0  0  0  0  0  0
   11.6479    5.0573    3.8167 C   0  0  0  0  0  0  0  0  0  0  0  0
   10.5428    4.4474    3.1905 N   0  0  0  0  0  0  0  0  0  0  0  0
   10.3864    3.0585    2.9706 C   0  0  0  0  0  0  0  0  0  0  0  0
   11.2875    2.2461    3.2678 O   0  0  0  0  0  0  0  0  0  0  0  0
    9.1184    2.5667    2.3727 C   0  0  0  0  0  0  0  0  0  0  0  0
    8.8209    1.2583    2.0856 C   0  0  0  0  0  0  0  0  0  0  0  0
    7.5589    1.2391    1.5484 C   0  0  0  0  0  0  0  0  0  0  0  0
    7.1380    2.5463    1.5308 C   0  0  0  0  0  0  0  0  0  0  0  0
    8.0862    3.2978    2.0252 O   0  0  0  0  0  0  0  0  0  0  0  0
   11.6198    6.2523    4.4690 C   0  0  0  0  0  0  0  0  0  0  0  0
   12.7670    6.7857    5.0639 C   0  0  0  0  0  0  0  0  0  0  0  0
  1  2  1  0
  2  3  1  0
  3  4  1  0
  4  5  1  0
  5  6  1  0
  6  7  1  0
  4  8  1  0
  8  9  2  0
  8 10  1  0
 10 11  1  0
 11 12  2  0
 12 13  1  0
 13 14  2  0
 14 15  1  0
 15 16  1  0
 16 17  2  0
 16 18  1  0
 18 19  2  0
 19 20  1  0
 20 21  2  0
 21 22  1  0
 14 23  1  0
 23 24  2  0
 24 11  1  0
 22 18  1  0
M  END
$$$$
