
     RDKit          3D

 24 25  0  0  0  0  0  0  0  0999 V2000
   32.2357   43.3298   28.8355 C   0  0  0  0  0  0  0  0  0  0  0  0
   31.5262   44.5336   28.1893 C   0  0  0  0  0  0  0  0  0  0  0  0
   32.4487   45.0357   27.1367 C   0  0  0  0  0  0  0  0  0  0  0  0
   33.6766   45.7378   27.6164 C   0  0  0  0  0  0  0  0  0  0  0  0
   33.5637   47.2020   27.8149 C   0  0  0  0  0  0  0  0  0  0  0  0
   33.9387   47.7962   29.0984 C   0  0  0  0  0  0  0  0  0  0  0  0
   35.1725   47.4013   29.7865 C   0  0  0  0  0  0  0  0  0  0  0  0
   34.7653   45.5235   26.6241 C   0  0  0  0  0  0  0  0  0  0  0  0
   34.7004   44.5023   25.8793 O   0  0  0  0  0  0  0  0  0  0  0  0
   35.8465   46.3775   26.4702 O   0  0  0  0  0  0  0  0  0  0  0  0
   36.8643   45.9783   25.6076 C   0  0  0  0  0  0  0  0  0  0  0  0
   36.7712   46.3621   24.2889 C   0  0  0  0  0  0  0  0  0  0  0  0
   37.7724   45.9752   23.4171 C   0  0  0  0  0  0  0  0  0  0  0  0
   38.8706   45.2189   23.7966 C   0  0  0  0  0  0  0  0  0  0  0  0
   39.8273   44.8855   22.8173 N   0  0  0  0  0  0  0  0  0  0  0  0
   39.9387   45.4841   21.5401 C   0  0  0  0  0  0  0  0  0  0  0  0
   39.0682   46.2703   21.1108 O   0  0  0  0  0  0  0  0  0  0  0  0
   41.1211   45.1632   20.6999 C   0  0  0  0  0  0  0  0  0  0  0  0
   42.1535   44.3306   21.0517 C   0  0  0  0  0  0  0  0  0  0  0  0
   43.0328   44.3097   19.9990 C   0  0  0  0  0  0  0  0  0  0  0  0
   42.4947   45.1365   19.0435 C   0  0  0  0  0  0  0  0  0  0  0  0
   41.3676   45.6201   19.4953 O   0  0  0  0  0  0  0  0  0  0  0  0
   38.9305   44.8570   25.1079 C   0  0  0  0  0  0  0  0  0  0  0  0
   37.9345   45.2322   26.0144 C   0  0  0  0  0  0  0  0  0  0  0  0
  1  2  1  0
  2  3  1  0
  3  4  1  0
  4  5  1  0
  5  6  1  0
  6  7  1  0
  4  8  1  0
  8  9  2  0
  8 10  1  0
 10 11  1  0
 11 12  2  0
 12 13  1  0
 13 14  2  0
 14 15  1  0
 15 16  1  0
 16 17  2  0
 16 18  1  0
 18 19  2  0
 19 20  1  0
 20 21  2  0
 21 22  1  0
 14 23  1  0
 23 24  2  0
 24 11  1  0
 22 18  1  0
M  END
$$$$
