
     RDKit          3D

 27 28  0  0  0  0  0  0  0  0999 V2000
  112.8674  142.6195   96.9072 C   0  0  0  0  0  0  0  0  0  0  0  0
  113.2780  141.7386   98.0024 C   0  0  0  0  0  0  0  0  0  0  0  0
  112.9355  140.2416   97.7453 C   0  0  0  0  0  0  0  0  0  0  0  0
  111.6015  139.9000   98.2140 C   0  0  0  0  0  0  0  0  0  0  0  0
  111.0984  139.0463   99.0505 C   0  0  0  0  0  0  0  0  0  0  0  0
  111.5085  138.0189   99.9431 C   0  0  0  0  0  0  0  0  0  0  0  0
  111.5151  137.8067  101.2392 C   0  0  0  0  0  0  0  0  0  0  0  0
  111.1205  138.4767  102.3966 N   0  0  0  0  0  0  0  0  0  0  0  0
  111.6290  139.6852  102.9953 C   0  0  0  0  0  0  0  0  0  0  0  0
  113.0815  139.6452  103.3507 C   0  0  0  0  0  0  0  0  0  0  0  0
  114.0038  140.0539  102.4295 C   0  0  0  0  0  0  0  0  0  0  0  0
  113.4840  140.5344  101.1047 C   0  0  0  0  0  0  0  0  0  0  0  0
  112.9708  141.6318  100.6437 C   0  0  0  0  0  0  0  0  0  0  0  0
  112.4501  141.9801   99.2854 C   0  0  0  0  0  0  0  0  0  0  0  0
  111.2943  142.4289   98.9947 N   0  0  0  0  0  0  0  0  0  0  0  0
  110.1447  142.8221   99.7101 C   0  0  0  0  0  0  0  0  0  0  0  0
  109.1112  141.9502   99.9985 N   0  0  0  0  0  0  0  0  0  0  0  0
  108.5866  141.8205  101.3192 C   0  0  0  0  0  0  0  0  0  0  0  0
  107.9476  143.0244  101.9432 C   0  0  0  0  0  0  0  0  0  0  0  0
  106.8293  142.8341  102.7714 N   0  0  0  0  0  0  0  0  0  0  0  0
  107.2003  142.2077  104.3110 Cl  0  0  0  0  0  0  0  0  0  0  0  0
  105.8504  141.9838  102.1288 C   0  0  0  0  0  0  0  0  0  0  0  0
  104.4515  142.5179  102.1806 C   0  0  0  0  0  0  0  0  0  0  0  0
  104.5835  144.2952  102.4128 Cl  0  0  0  0  0  0  0  0  0  0  0  0
  109.6250  141.2738  102.1518 C   0  0  0  0  0  0  0  0  0  0  0  0
  109.6873  141.1040  103.5736 C   0  0  0  0  0  0  0  0  0  0  0  0
  110.7176  140.2896  103.9868 C   0  0  0  0  0  0  0  0  0  0  0  0
  1  2  1  0
  2  3  1  0
  3  4  1  0
  4  5  2  0
  5  6  1  0
  6  7  2  0
  7  8  1  0
  8  9  1  0
  9 10  1  0
 10 11  2  0
 11 12  1  0
 12 13  2  0
 13 14  1  0
 14 15  2  0
 15 16  1  0
 16 17  1  0
 17 18  1  0
 18 19  1  0
 19 20  1  0
 20 21  1  0
 20 22  1  0
 22 23  1  0
 23 24  1  0
 18 25  1  0
 25 26  1  0
 26 27  2  0
 14  2  1  0
 27  9  1  0
M  END
$$$$
