
     RDKit          3D

 16 16  0  0  0  0  0  0  0  0999 V2000
  109.0297  139.0354  160.2707 C   0  0  0  0  0  0  0  0  0  0  0  0
  110.1984  139.1459  159.3224 C   0  0  0  0  0  0  0  0  0  0  0  0
  111.3553  138.3977  159.7804 N   0  0  2  0  0  4  0  0  0  0  0  0
  111.1960  138.2168  161.2162 C   0  0  0  0  0  0  0  0  0  0  0  0
  112.5181  139.1937  159.4588 C   0  0  0  0  0  0  0  0  0  0  0  0
  112.7047  139.3853  158.0102 C   0  0  0  0  0  0  0  0  0  0  0  0
  112.6487  138.3652  157.0852 C   0  0  0  0  0  0  0  0  0  0  0  0
  112.8271  138.5713  155.7335 C   0  0  0  0  0  0  0  0  0  0  0  0
  112.7734  137.5541  154.7905 O   0  0  0  0  0  0  0  0  0  0  0  0
  112.3780  136.2347  155.1116 C   0  0  0  0  0  0  0  0  0  0  0  0
  113.0699  139.8516  155.3058 C   0  0  0  0  0  0  0  0  0  0  0  0
  113.2550  140.0879  153.9350 O   0  0  0  0  0  0  0  0  0  0  0  0
  113.1374  140.9126  156.1833 C   0  0  0  0  0  0  0  0  0  0  0  0
  113.3839  142.2036  155.7362 O   0  0  0  0  0  0  0  0  0  0  0  0
  112.7744  143.2926  156.4034 C   0  0  0  0  0  0  0  0  0  0  0  0
  112.9507  140.6579  157.5421 C   0  0  0  0  0  0  0  0  0  0  0  0
  1  2  1  0
  2  3  1  0
  3  4  1  1
  3  5  1  0
  5  6  1  0
  6  7  2  0
  7  8  1  0
  8  9  1  0
  9 10  1  0
  8 11  2  0
 11 12  1  0
 11 13  1  0
 13 14  1  0
 14 15  1  0
 13 16  2  0
 16  6  1  0
M  CHG  1   3   1
M  END
$$$$
