
     RDKit          3D

 17 17  0  0  0  0  0  0  0  0999 V2000
  154.8162  154.1428  148.2305 N   0  0  0  0  0  0  0  0  0  0  0  0
  153.9319  153.9696  147.1321 C   0  0  0  0  0  0  0  0  0  0  0  0
  152.6194  153.9995  147.2438 C   0  0  0  0  0  0  0  0  0  0  0  0
  152.1118  154.2194  148.5496 N   0  0  0  0  0  0  0  0  0  0  0  0
  150.6861  154.2262  148.7409 C   0  0  0  0  0  0  0  0  0  0  0  0
  150.3134  154.2190  150.2183 C   0  0  0  0  0  0  0  0  0  0  0  0
  151.3672  154.7011  150.9642 O   0  0  0  0  0  0  0  0  0  0  0  0
  151.7496  153.8116  146.0630 C   0  0  0  0  0  0  0  0  0  0  0  0
  152.4608  154.0512  144.8024 C   0  0  0  0  0  0  0  0  0  0  0  0
  151.6984  154.2613  143.5557 C   0  0  0  0  0  0  0  0  0  0  0  0
  152.1444  155.4505  142.8271 N   0  0  0  0  0  0  0  0  0  0  0  0
  153.1605  155.0229  141.8990 C   0  0  0  0  0  0  0  0  0  0  0  0
  154.2741  156.0038  141.8374 C   0  0  0  0  0  0  0  0  0  0  0  0
  155.4528  155.6496  141.3023 C   0  0  0  0  0  0  0  0  0  0  0  0
  156.6676  156.8404  140.9132 Cl  0  0  0  0  0  0  0  0  0  0  0  0
  153.7534  154.0753  144.7589 C   0  0  0  0  0  0  0  0  0  0  0  0
  154.4839  153.7518  145.8015 C   0  0  0  0  0  0  0  0  0  0  0  0
  1  2  1  0
  2  3  2  0
  3  4  1  0
  4  5  1  0
  5  6  1  0
  6  7  1  0
  3  8  1  0
  8  9  1  0
  9 10  1  0
 10 11  1  0
 11 12  1  0
 12 13  1  0
 13 14  2  3
 14 15  1  0
  9 16  2  0
 16 17  2  0
 17  2  1  0
M  END
$$$$
