
     RDKit          3D

 26 26  0  0  0  0  0  0  0  0999 V2000
  126.2432  133.2494  142.3789 C   0  0  0  0  0  0  0  0  0  0  0  0
  126.8980  134.1091  143.3510 N   0  0  0  0  0  0  0  0  0  0  0  0
  126.6718  135.4557  143.0860 N   0  0  0  0  0  0  0  0  0  0  0  0
  125.5879  136.0779  143.5951 O   0  0  0  0  0  0  0  0  0  0  0  0
  125.4847  135.7320  144.9464 C   0  0  0  0  0  0  0  0  0  0  0  0
  126.7689  136.0383  145.6748 C   0  0  0  0  0  0  0  0  0  0  0  0
  126.9504  137.5373  145.7598 C   0  0  0  0  0  0  0  0  0  0  0  0
  125.8927  138.2129  146.5206 C   0  0  0  0  0  0  0  0  0  0  0  0
  125.7101  137.9577  147.8245 C   0  0  0  0  0  0  0  0  0  0  0  0
  127.0799  137.3701  148.7850 Cl  0  0  0  0  0  0  0  0  0  0  0  0
  124.4306  138.1334  148.5269 C   0  0  0  0  0  0  0  0  0  0  0  0
  123.4207  136.6780  148.2264 Cl  0  0  0  0  0  0  0  0  0  0  0  0
  127.0191  138.0185  144.3732 N   0  0  0  0  0  0  0  0  0  0  0  0
  128.3878  138.3479  144.1086 C   0  0  0  0  0  0  0  0  0  0  0  0
  128.6380  138.9078  142.8238 N   0  0  0  0  0  0  0  0  0  0  0  0
  128.1175  138.5855  141.7164 C   0  0  0  0  0  0  0  0  0  0  0  0
  128.4649  139.2352  140.5040 N   0  0  0  0  0  0  0  0  0  0  0  0
  128.7635  138.4988  139.2867 C   0  0  0  0  0  0  0  0  0  0  0  0
  129.9389  139.0512  138.5659 C   0  0  0  0  0  0  0  0  0  0  0  0
  131.0333  139.0251  139.4356 O   0  0  0  0  0  0  0  0  0  0  0  0
  127.1128  137.4992  141.6655 C   0  0  0  0  0  0  0  0  0  0  0  0
  127.5608  136.2433  142.2722 C   0  0  0  0  0  0  0  0  0  0  0  0
  128.7550  135.7587  142.1276 N   0  0  0  0  0  0  0  0  0  0  0  0
  129.3337  135.3529  140.9256 C   0  0  0  0  0  0  0  0  0  0  0  0
  128.9395  135.9855  139.8327 C   0  0  0  0  0  0  0  0  0  0  0  0
  128.4657  136.4817  138.7637 N   0  0  0  0  0  0  0  0  0  0  0  0
  1  2  1  0
  2  3  1  0
  3  4  1  0
  4  5  1  0
  5  6  1  0
  6  7  1  0
  7  8  1  0
  8  9  2  3
  9 10  1  0
  9 11  1  0
 11 12  1  0
  7 13  1  0
 13 14  1  0
 14 15  1  0
 15 16  2  0
 16 17  1  0
 17 18  1  0
 18 19  1  0
 19 20  1  0
 16 21  1  0
 21 22  1  0
 22 23  2  3
 23 24  1  0
 24 25  2  0
 25 26  2  0
 22  3  1  0
M  END
$$$$
