
     RDKit          3D

 22 23  0  0  0  0  0  0  0  0999 V2000
  127.6911  147.3231  148.9517 C   0  0  0  0  0  0  0  0  0  0  0  0
  127.2289  146.2280  149.8827 C   0  0  0  0  0  0  0  0  0  0  0  0
  128.3604  145.6539  150.7115 C   0  0  0  0  0  0  0  0  0  0  0  0
  126.1580  145.2908  149.5024 C   0  0  0  0  0  0  0  0  0  0  0  0
  125.3084  145.4755  148.3252 C   0  0  0  0  0  0  0  0  0  0  0  0
  124.7674  144.5255  147.7059 O   0  0  0  0  0  0  0  0  0  0  0  0
  125.0661  146.7522  147.8401 O   0  0  0  0  0  0  0  0  0  0  0  0
  124.9745  147.0061  146.4299 C   0  0  0  0  0  0  0  0  0  0  0  0
  123.5632  147.2181  146.0734 C   0  0  0  0  0  0  0  0  0  0  0  0
  123.2709  147.5794  144.7717 C   0  0  0  0  0  0  0  0  0  0  0  0
  121.9373  147.7850  144.4144 C   0  0  0  0  0  0  0  0  0  0  0  0
  120.9154  147.6448  145.2931 C   0  0  0  0  0  0  0  0  0  0  0  0
  119.5990  147.8293  145.0117 O   0  0  0  0  0  0  0  0  0  0  0  0
  119.0389  147.8911  143.7429 C   0  0  0  0  0  0  0  0  0  0  0  0
  119.6655  148.8832  142.9706 F   0  0  0  0  0  0  0  0  0  0  0  0
  119.2897  146.6687  143.1028 F   0  0  0  0  0  0  0  0  0  0  0  0
  121.2400  147.2785  146.6038 C   0  0  0  0  0  0  0  0  0  0  0  0
  120.2528  147.1313  147.4979 F   0  0  0  0  0  0  0  0  0  0  0  0
  122.5459  147.0709  146.9778 C   0  0  0  0  0  0  0  0  0  0  0  0
  125.9242  146.3486  150.5897 C   0  0  0  0  0  0  0  0  0  0  0  0
  125.0743  147.3975  150.3051 F   0  0  0  0  0  0  0  0  0  0  0  0
  125.8263  145.9111  151.8933 F   0  0  0  0  0  0  0  0  0  0  0  0
  1  2  1  0
  2  3  1  0
  2  4  1  0
  4  5  1  0
  5  6  2  0
  5  7  1  0
  7  8  1  0
  8  9  1  0
  9 10  2  0
 10 11  1  0
 11 12  2  0
 12 13  1  0
 13 14  1  0
 14 15  1  0
 14 16  1  0
 12 17  1  0
 17 18  1  0
 17 19  2  0
  4 20  1  0
 20 21  1  0
 20 22  1  0
 20  2  1  0
 19  9  1  0
M  END
$$$$
