
     RDKit          3D

 19 21  0  0  0  0  0  0  0  0999 V2000
  172.7616  144.4330  158.9253 C   0  0  0  0  0  0  0  0  0  0  0  0
  171.3970  144.4915  159.5220 C   0  0  0  0  0  0  0  0  0  0  0  0
  170.3805  143.6067  159.1847 C   0  0  0  0  0  0  0  0  0  0  0  0
  169.1269  143.6749  159.7418 C   0  0  0  0  0  0  0  0  0  0  0  0
  168.0800  142.7731  159.4088 N   0  0  0  0  0  0  0  0  0  0  0  0
  167.9502  142.1622  158.1263 C   0  0  0  0  0  0  0  0  0  0  0  0
  167.4917  140.8696  157.9784 C   0  0  0  0  0  0  0  0  0  0  0  0
  167.4017  140.3459  156.7137 C   0  0  0  0  0  0  0  0  0  0  0  0
  167.7528  141.0670  155.5964 C   0  0  0  0  0  0  0  0  0  0  0  0
  167.6565  140.4957  154.2294 C   0  0  0  0  0  0  0  0  0  0  0  0
  168.2098  142.3536  155.7421 C   0  0  0  0  0  0  0  0  0  0  0  0
  168.7194  143.4028  154.2359 Br  0  0  0  0  0  0  0  0  0  0  0  0
  168.3066  142.8973  157.0147 C   0  0  0  0  0  0  0  0  0  0  0  0
  168.8747  144.6505  160.6618 N   0  0  0  0  0  0  0  0  0  0  0  0
  167.7649  144.9428  161.3563 N   0  0  0  0  0  0  0  0  0  0  0  0
  168.0284  145.9997  162.1432 C   0  0  0  0  0  0  0  0  0  0  0  0
  169.3069  146.3486  161.9230 N   0  0  0  0  0  0  0  0  0  0  0  0
  169.8479  145.5070  160.9934 C   0  0  0  0  0  0  0  0  0  0  0  0
  171.0653  145.4199  160.4342 N   0  0  0  0  0  0  0  0  0  0  0  0
  1  2  1  0
  2  3  1  0
  3  4  2  0
  4  5  1  0
  5  6  1  0
  6  7  2  0
  7  8  1  0
  8  9  2  0
  9 10  1  0
  9 11  1  0
 11 12  1  0
 11 13  2  0
  4 14  1  0
 14 15  1  0
 15 16  2  0
 16 17  1  0
 17 18  2  0
 18 19  1  0
 19  2  2  0
 13  6  1  0
 18 14  1  0
M  END
$$$$
