
     RDKit          3D

 25 27  0  0  0  0  0  0  0  0999 V2000
  128.9450  143.7444  152.4906 C   0  0  0  0  0  0  0  0  0  0  0  0
  128.2370  145.2197  151.8047 S   0  0  0  0  0  6  0  0  0  0  0  0
  127.0327  145.5766  152.6436 O   0  0  0  0  0  0  0  0  0  0  0  0
  129.2748  146.3017  151.8950 O   0  0  0  0  0  0  0  0  0  0  0  0
  127.7707  144.9202  150.1498 C   0  0  0  0  0  0  0  0  0  0  0  0
  127.4889  145.9842  149.3344 C   0  0  0  0  0  0  0  0  0  0  0  0
  127.1188  145.7959  148.0282 C   0  0  0  0  0  0  0  0  0  0  0  0
  127.0347  144.5093  147.5470 C   0  0  0  0  0  0  0  0  0  0  0  0
  127.3069  143.4017  148.3231 C   0  0  0  0  0  0  0  0  0  0  0  0
  127.1985  142.0653  147.7504 C   0  0  0  0  0  0  0  0  0  0  0  0
  126.7909  141.9318  146.5656 O   0  0  0  0  0  0  0  0  0  0  0  0
  127.5245  140.8835  148.4427 N   0  0  0  0  0  0  0  0  0  0  0  0
  127.4173  139.5750  147.8894 C   0  0  0  0  0  0  0  0  0  0  0  0
  127.5147  139.1123  146.6687 N   0  0  0  0  0  0  0  0  0  0  0  0
  127.3680  137.8301  146.4423 C   0  0  0  0  0  0  0  0  0  0  0  0
  127.4665  137.2345  145.0746 C   0  0  0  0  0  0  0  0  0  0  0  0
  127.2882  135.8943  144.8828 C   0  0  0  0  0  0  0  0  0  0  0  0
  127.3770  135.3187  143.6073 C   0  0  0  0  0  0  0  0  0  0  0  0
  127.6487  136.1399  142.5528 C   0  0  0  0  0  0  0  0  0  0  0  0
  127.7552  135.6486  141.2426 O   0  0  0  0  0  0  0  0  0  0  0  0
  127.8360  137.4975  142.6993 C   0  0  0  0  0  0  0  0  0  0  0  0
  127.7386  138.0108  143.9684 C   0  0  0  0  0  0  0  0  0  0  0  0
  127.1144  137.0297  147.5290 C   0  0  0  0  0  0  0  0  0  0  0  0
  127.1039  138.1748  148.8036 S   0  0  0  0  0  0  0  0  0  0  0  0
  127.6745  143.6429  149.6283 C   0  0  0  0  0  0  0  0  0  0  0  0
  1  2  1  0
  2  3  2  0
  2  4  2  0
  2  5  1  0
  5  6  2  0
  6  7  1  0
  7  8  2  0
  8  9  1  0
  9 10  1  0
 10 11  2  0
 10 12  1  0
 12 13  1  0
 13 14  2  0
 14 15  1  0
 15 16  1  0
 16 17  2  0
 17 18  1  0
 18 19  2  0
 19 20  1  0
 19 21  1  0
 21 22  2  0
 15 23  2  0
 23 24  1  0
  9 25  2  0
 25  5  1  0
 24 13  1  0
 22 16  1  0
M  END
$$$$
