
     RDKit          3D

 15 16  0  0  0  0  0  0  0  0999 V2000
  151.5948  145.4333  146.0688 C   0  0  0  0  0  0  0  0  0  0  0  0
  151.4277  146.6725  145.1917 C   0  0  0  0  0  0  0  0  0  0  0  0
  150.1903  146.4536  144.3652 C   0  0  0  0  0  0  0  0  0  0  0  0
  152.5476  146.8289  144.3844 O   0  0  0  0  0  0  0  0  0  0  0  0
  151.3164  147.8262  146.1088 C   0  0  0  0  0  0  0  0  0  0  0  0
  151.5537  149.0228  145.6217 C   0  0  0  0  0  0  0  0  0  0  0  0
  151.5092  150.2393  146.4292 C   0  0  0  0  0  0  0  0  0  0  0  0
  150.7935  150.3129  147.5922 C   0  0  0  0  0  0  0  0  0  0  0  0
  150.7859  151.5023  148.3258 C   0  0  0  0  0  0  0  0  0  0  0  0
  151.4879  152.6026  147.8962 C   0  0  0  0  0  0  0  0  0  0  0  0
  151.6687  153.8854  148.3921 C   0  0  0  0  0  0  0  0  0  0  0  0
  152.4830  154.5845  147.5438 C   0  0  0  0  0  0  0  0  0  0  0  0
  152.8108  153.7624  146.5327 N   0  0  0  0  0  0  0  0  0  0  0  0
  152.2191  152.5482  146.7207 C   0  0  0  0  0  0  0  0  0  0  0  0
  152.2123  151.3697  146.0164 C   0  0  0  0  0  0  0  0  0  0  0  0
  1  2  1  0
  2  3  1  0
  2  4  1  0
  2  5  1  0
  5  6  2  0
  6  7  1  0
  7  8  2  0
  8  9  1  0
  9 10  2  0
 10 11  1  0
 11 12  2  0
 12 13  1  0
 13 14  1  0
 14 15  2  0
 15  7  1  0
 14 10  1  0
M  END
$$$$
