
     RDKit          3D

 15 16  0  0  0  0  0  0  0  0999 V2000
  149.5375  154.7020  148.8981 C   0  0  0  0  0  0  0  0  0  0  0  0
  150.9934  154.6789  149.3596 C   0  0  0  0  0  0  0  0  0  0  0  0
  151.8356  154.9709  148.1481 C   0  0  0  0  0  0  0  0  0  0  0  0
  151.2962  153.4313  149.8907 O   0  0  0  0  0  0  0  0  0  0  0  0
  151.1177  155.7068  150.4142 C   0  0  0  0  0  0  0  0  0  0  0  0
  150.6320  155.4291  151.6026 C   0  0  0  0  0  0  0  0  0  0  0  0
  150.7328  156.3384  152.7413 C   0  0  0  0  0  0  0  0  0  0  0  0
  151.5813  157.4110  152.7410 C   0  0  0  0  0  0  0  0  0  0  0  0
  151.6375  158.2490  153.8580 C   0  0  0  0  0  0  0  0  0  0  0  0
  150.8517  158.0122  154.9600 C   0  0  0  0  0  0  0  0  0  0  0  0
  150.6890  158.6463  156.1829 C   0  0  0  0  0  0  0  0  0  0  0  0
  149.7547  157.9704  156.9189 C   0  0  0  0  0  0  0  0  0  0  0  0
  149.3348  156.9309  156.1781 N   0  0  0  0  0  0  0  0  0  0  0  0
  149.9857  156.9309  154.9799 C   0  0  0  0  0  0  0  0  0  0  0  0
  149.9470  156.1212  153.8717 C   0  0  0  0  0  0  0  0  0  0  0  0
  1  2  1  0
  2  3  1  0
  2  4  1  0
  2  5  1  0
  5  6  2  0
  6  7  1  0
  7  8  2  0
  8  9  1  0
  9 10  2  0
 10 11  1  0
 11 12  2  0
 12 13  1  0
 13 14  1  0
 14 15  2  0
 15  7  1  0
 14 10  1  0
M  END
$$$$
