
     RDKit          3D

 15 16  0  0  0  0  0  0  0  0999 V2000
  150.2256  159.2666  155.2959 C   0  0  0  0  0  0  0  0  0  0  0  0
  150.7307  157.8255  155.2664 C   0  0  0  0  0  0  0  0  0  0  0  0
  149.9496  157.0723  156.3080 C   0  0  0  0  0  0  0  0  0  0  0  0
  152.0914  157.8007  155.5462 O   0  0  0  0  0  0  0  0  0  0  0  0
  150.5005  157.3260  153.8946 C   0  0  0  0  0  0  0  0  0  0  0  0
  151.3201  156.4113  153.4287 C   0  0  0  0  0  0  0  0  0  0  0  0
  151.1946  155.8283  152.0952 C   0  0  0  0  0  0  0  0  0  0  0  0
  150.0309  155.8956  151.3800 C   0  0  0  0  0  0  0  0  0  0  0  0
  149.9664  155.3203  150.1080 C   0  0  0  0  0  0  0  0  0  0  0  0
  151.0565  154.6863  149.5625 C   0  0  0  0  0  0  0  0  0  0  0  0
  151.2933  154.0388  148.3588 C   0  0  0  0  0  0  0  0  0  0  0  0
  152.5830  153.5829  148.3399 C   0  0  0  0  0  0  0  0  0  0  0  0
  153.1506  153.9341  149.5061 N   0  0  0  0  0  0  0  0  0  0  0  0
  152.2445  154.6075  150.2710 C   0  0  0  0  0  0  0  0  0  0  0  0
  152.2851  155.1795  151.5186 C   0  0  0  0  0  0  0  0  0  0  0  0
  1  2  1  0
  2  3  1  0
  2  4  1  0
  2  5  1  0
  5  6  2  0
  6  7  1  0
  7  8  2  0
  8  9  1  0
  9 10  2  0
 10 11  1  0
 11 12  2  0
 12 13  1  0
 13 14  1  0
 14 15  2  0
 15  7  1  0
 14 10  1  0
M  END
$$$$
