
     RDKit          3D

 23 24  0  0  0  0  0  0  0  0999 V2000
  150.0245  158.2012  156.8751 C   0  0  0  0  0  0  0  0  0  0  0  0
  150.0644  157.3762  155.7320 O   0  0  0  0  0  0  0  0  0  0  0  0
  150.8062  157.6922  154.5916 C   0  0  0  0  0  0  0  0  0  0  0  0
  151.3885  158.8016  154.6061 O   0  0  0  0  0  0  0  0  0  0  0  0
  150.9061  156.8020  153.4528 C   0  0  0  0  0  0  0  0  0  0  0  0
  151.4905  157.2085  152.2752 C   0  0  0  0  0  0  0  0  0  0  0  0
  151.5755  156.3331  151.1910 C   0  0  0  0  0  0  0  0  0  0  0  0
  151.0681  155.0315  151.2865 C   0  0  0  0  0  0  0  0  0  0  0  0
  151.1907  154.1861  150.1305 C   0  0  0  0  0  0  0  0  0  0  0  0
  150.5974  153.0588  150.1041 O   0  0  0  0  0  0  0  0  0  0  0  0
  151.9963  154.6208  148.9858 C   0  0  0  0  0  0  0  0  0  0  0  0
  152.2103  153.8447  147.9532 C   0  0  0  0  0  0  0  0  0  0  0  0
  153.0150  154.2797  146.8332 C   0  0  0  0  0  0  0  0  0  0  0  0
  152.4835  155.2778  146.0010 C   0  0  0  0  0  0  0  0  0  0  0  0
  153.1911  155.7200  144.9432 C   0  0  0  0  0  0  0  0  0  0  0  0
  154.4424  155.2016  144.6627 C   0  0  0  0  0  0  0  0  0  0  0  0
  155.1279  155.6913  143.5629 O   0  0  0  0  0  0  0  0  0  0  0  0
  154.9816  154.2298  145.4570 C   0  0  0  0  0  0  0  0  0  0  0  0
  156.2307  153.6980  145.1944 O   0  0  0  0  0  0  0  0  0  0  0  0
  156.8483  152.8314  146.1107 C   0  0  0  0  0  0  0  0  0  0  0  0
  154.2568  153.7705  146.5483 C   0  0  0  0  0  0  0  0  0  0  0  0
  150.4932  154.6537  152.4667 C   0  0  0  0  0  0  0  0  0  0  0  0
  150.4083  155.5311  153.5525 C   0  0  0  0  0  0  0  0  0  0  0  0
  1  2  1  0
  2  3  1  0
  3  4  2  0
  3  5  1  0
  5  6  2  0
  6  7  1  0
  7  8  2  0
  8  9  1  0
  9 10  2  0
  9 11  1  0
 11 12  2  3
 12 13  1  0
 13 14  2  0
 14 15  1  0
 15 16  2  0
 16 17  1  0
 16 18  1  0
 18 19  1  0
 19 20  1  0
 18 21  2  0
  8 22  1  0
 22 23  2  0
 23  5  1  0
 21 13  1  0
M  END
$$$$
