
     RDKit          3D

 17 18  0  0  0  0  0  0  0  0999 V2000
   -6.6868   24.0418    9.7053 C   0  0  0  0  0  0  0  0  0  0  0  0
   -6.2815   25.4845    9.9307 C   0  0  2  0  0  0  0  0  0  0  0  0
   -6.7664   26.2837    8.7565 C   0  0  0  0  0  0  0  0  0  0  0  0
   -5.7389   27.3272    8.3625 C   0  0  0  0  0  0  0  0  0  0  0  0
   -5.2667   27.9718    9.6619 C   0  0  0  0  0  0  0  0  0  0  0  0
   -4.4369   26.9786   10.3171 N   0  0  0  0  0  0  0  0  0  0  0  0
   -3.3486   27.3984   11.1192 C   0  0  0  0  0  0  0  0  0  0  0  0
   -2.6690   28.3976   10.7978 O   0  0  0  0  0  0  0  0  0  0  0  0
   -3.0621   26.6253   12.3165 C   0  0  0  0  0  0  0  0  0  0  0  0
   -3.4622   25.3090   12.3889 C   0  0  0  0  0  0  0  0  0  0  0  0
   -3.1867   24.5626   13.5422 C   0  0  0  0  0  0  0  0  0  0  0  0
   -3.6971   22.9027   13.6205 Cl  0  0  0  0  0  0  0  0  0  0  0  0
   -2.5189   25.1821   14.5696 C   0  0  0  0  0  0  0  0  0  0  0  0
   -2.1363   26.4830   14.4697 C   0  0  0  0  0  0  0  0  0  0  0  0
   -2.3949   27.2357   13.3492 C   0  0  0  0  0  0  0  0  0  0  0  0
   -1.8934   28.9156   13.2365 Cl  0  0  0  0  0  0  0  0  0  0  0  0
   -4.7749   25.5943   10.1096 C   0  0  0  0  0  0  0  0  0  0  0  0
  2  1  1  6
  2  3  1  0
  3  4  1  0
  4  5  1  0
  5  6  1  0
  6  7  1  0
  7  8  2  0
  7  9  1  0
  9 10  2  0
 10 11  1  0
 11 12  1  0
 11 13  2  0
 13 14  1  0
 14 15  2  0
 15 16  1  0
  6 17  1  0
 17  2  1  0
 15  9  1  0
M  END
$$$$
