
     RDKit          3D

 17 18  0  0  0  0  0  0  0  0999 V2000
  -13.8330   -9.7498   -3.9117 C   0  0  0  0  0  0  0  0  0  0  0  0
  -13.2933  -10.4546   -2.9262 C   0  0  0  0  0  0  0  0  0  0  0  0
  -12.2647   -9.4956   -1.6356 Br  0  0  0  0  0  0  0  0  0  0  0  0
  -13.5136  -11.8969   -2.8849 C   0  0  0  0  0  0  0  0  0  0  0  0
  -14.5931  -12.3577   -3.7235 N   0  0  0  0  0  0  0  0  0  0  0  0
  -14.2302  -13.4593   -4.5650 C   0  0  0  0  0  0  0  0  0  0  0  0
  -13.7501  -12.9395   -5.8932 C   0  0  0  0  0  0  0  0  0  0  0  0
  -12.4674  -12.4601   -6.0650 C   0  0  0  0  0  0  0  0  0  0  0  0
  -12.0321  -11.9865   -7.2918 C   0  0  0  0  0  0  0  0  0  0  0  0
  -12.9036  -11.9985   -8.3530 C   0  0  0  0  0  0  0  0  0  0  0  0
  -14.2006  -12.4682   -8.2335 C   0  0  0  0  0  0  0  0  0  0  0  0
  -15.0269  -12.4514   -9.3445 O   0  0  0  0  0  0  0  0  0  0  0  0
  -16.3640  -12.8770   -9.1502 C   0  0  0  0  0  0  0  0  0  0  0  0
  -14.5754  -12.9258   -6.9903 C   0  0  0  0  0  0  0  0  0  0  0  0
  -12.2504  -11.4761   -9.4889 O   0  0  0  0  0  0  0  0  0  0  0  0
  -10.8611  -11.5400   -9.1776 C   0  0  0  0  0  0  0  0  0  0  0  0
  -10.8357  -11.4590   -7.7542 O   0  0  0  0  0  0  0  0  0  0  0  0
  1  2  2  0
  2  3  1  0
  2  4  1  0
  4  5  1  0
  5  6  1  0
  6  7  1  0
  7  8  2  0
  8  9  1  0
  9 10  2  0
 10 11  1  0
 11 12  1  0
 12 13  1  0
 11 14  2  0
 10 15  1  0
 15 16  1  0
 16 17  1  0
 14  7  1  0
 17  9  1  0
M  END
$$$$
