
     RDKit          3D

 24 26  0  0  0  0  0  0  0  0999 V2000
   16.9910    6.8300   10.5750 C   0  0  0  0  0  0  0  0  0  0  0  0
   16.8082    7.0837    9.1081 C   0  0  0  0  0  0  0  0  0  0  0  0
   17.9372    7.4519    8.3628 C   0  0  0  0  0  0  0  0  0  0  0  0
   17.8359    7.6904    7.0142 C   0  0  0  0  0  0  0  0  0  0  0  0
   16.5928    7.5566    6.4238 C   0  0  0  0  0  0  0  0  0  0  0  0
   15.4524    7.1907    7.1310 C   0  0  0  0  0  0  0  0  0  0  0  0
   14.1917    7.0459    6.4175 C   0  0  0  0  0  0  0  0  0  0  0  0
   13.2203    7.7085    6.8512 O   0  0  0  0  0  0  0  0  0  0  0  0
   14.0024    6.2103    5.2832 N   0  0  0  0  0  0  0  0  0  0  0  0
   12.7444    6.1548    4.5805 C   0  0  0  0  0  0  0  0  0  0  0  0
   12.2095    4.8680    4.1886 C   0  0  0  0  0  0  0  0  0  0  0  0
   11.6747    3.9444    5.0348 C   0  0  0  0  0  0  0  0  0  0  0  0
   11.1655    2.7300    4.5782 C   0  0  0  0  0  0  0  0  0  0  0  0
   11.1835    2.4069    3.2364 C   0  0  0  0  0  0  0  0  0  0  0  0
   10.5432    0.8666    2.6532 Cl  0  0  0  0  0  0  0  0  0  0  0  0
   11.7154    3.3198    2.3670 C   0  0  0  0  0  0  0  0  0  0  0  0
   12.2148    4.5189    2.8245 C   0  0  0  0  0  0  0  0  0  0  0  0
   15.0564    5.3353    4.9333 C   0  0  0  0  0  0  0  0  0  0  0  0
   15.6332    4.3938    5.7377 C   0  0  0  0  0  0  0  0  0  0  0  0
   16.7053    3.6095    5.3279 C   0  0  0  0  0  0  0  0  0  0  0  0
   17.1990    3.7928    4.0636 C   0  0  0  0  0  0  0  0  0  0  0  0
   16.6233    4.7370    3.2413 C   0  0  0  0  0  0  0  0  0  0  0  0
   15.5973    5.4608    3.6864 N   0  0  0  0  0  0  0  0  0  0  0  0
   15.5955    6.9608    8.4831 C   0  0  0  0  0  0  0  0  0  0  0  0
  1  2  1  0
  2  3  2  0
  3  4  1  0
  4  5  2  0
  5  6  1  0
  6  7  1  0
  7  8  2  0
  7  9  1  0
  9 10  1  0
 10 11  1  0
 11 12  2  0
 12 13  1  0
 13 14  2  0
 14 15  1  0
 14 16  1  0
 16 17  2  0
  9 18  1  0
 18 19  2  0
 19 20  1  0
 20 21  2  0
 21 22  1  0
 22 23  2  0
  6 24  2  0
 24  2  1  0
 17 11  1  0
 23 18  1  0
M  END
$$$$
