
     RDKit          3D

 20 20  0  0  0  0  0  0  0  0999 V2000
    9.6776   29.3167   -7.0518 C   0  0  0  0  0  0  0  0  0  0  0  0
    9.2637   30.0693   -6.0550 C   0  0  0  0  0  0  0  0  0  0  0  0
    8.8748   29.4231   -4.7734 C   0  0  1  0  0  0  0  0  0  0  0  0
    9.5669   30.0622   -3.6134 C   0  0  0  0  0  0  0  0  0  0  0  0
    7.4746   29.4544   -4.6909 O   0  0  0  0  0  0  0  0  0  0  0  0
    6.7026   28.6034   -5.4649 C   0  0  0  0  0  0  0  0  0  0  0  0
    7.2793   27.6983   -6.0950 O   0  0  0  0  0  0  0  0  0  0  0  0
    5.2411   28.8004   -5.5123 C   0  0  0  0  0  0  0  0  0  0  0  0
    4.4679   27.9512   -6.1360 C   0  0  0  0  0  0  0  0  0  0  0  0
    3.1349   28.2348   -6.6451 C   0  0  0  0  0  0  0  0  0  0  0  0
    2.3876   27.2344   -7.2763 C   0  0  0  0  0  0  0  0  0  0  0  0
    1.1425   27.4650   -7.7620 C   0  0  0  0  0  0  0  0  0  0  0  0
    0.4050   26.4654   -8.3886 O   0  0  0  0  0  0  0  0  0  0  0  0
    0.9052   25.1866   -8.6697 C   0  0  0  0  0  0  0  0  0  0  0  0
    0.5697   28.6972   -7.6497 C   0  0  0  0  0  0  0  0  0  0  0  0
   -0.7068   28.9877   -8.1316 O   0  0  0  0  0  0  0  0  0  0  0  0
    1.2708   29.7040   -7.0372 C   0  0  0  0  0  0  0  0  0  0  0  0
    0.6973   30.9624   -6.9173 O   0  0  0  0  0  0  0  0  0  0  0  0
    1.3200   32.0387   -6.2784 C   0  0  0  0  0  0  0  0  0  0  0  0
    2.5414   29.4659   -6.5423 C   0  0  0  0  0  0  0  0  0  0  0  0
  1  2  2  0
  2  3  1  0
  3  4  1  1
  3  5  1  0
  5  6  1  0
  6  7  2  0
  6  8  1  0
  8  9  2  0
  9 10  1  0
 10 11  2  0
 11 12  1  0
 12 13  1  0
 13 14  1  0
 12 15  2  0
 15 16  1  0
 15 17  1  0
 17 18  1  0
 18 19  1  0
 17 20  2  0
 20 10  1  0
M  END
$$$$
