
     RDKit          3D

 20 20  0  0  0  0  0  0  0  0999 V2000
    4.1579   10.0755  -24.9122 C   0  0  0  0  0  0  0  0  0  0  0  0
    3.2221   10.0571  -23.9873 C   0  0  0  0  0  0  0  0  0  0  0  0
    3.6200   10.0834  -22.5547 C   0  0  1  0  0  0  0  0  0  0  0  0
    2.7971   11.0630  -21.7826 C   0  0  0  0  0  0  0  0  0  0  0  0
    3.5464    8.7688  -22.0704 O   0  0  0  0  0  0  0  0  0  0  0  0
    2.3471    8.0756  -22.0891 C   0  0  0  0  0  0  0  0  0  0  0  0
    1.7097    8.0349  -23.1574 O   0  0  0  0  0  0  0  0  0  0  0  0
    1.8758    7.4188  -20.8549 C   0  0  0  0  0  0  0  0  0  0  0  0
    0.8738    6.5800  -20.8799 C   0  0  0  0  0  0  0  0  0  0  0  0
    0.2932    5.9187  -19.7214 C   0  0  0  0  0  0  0  0  0  0  0  0
   -0.8757    5.1603  -19.8477 C   0  0  0  0  0  0  0  0  0  0  0  0
   -1.4429    4.5312  -18.7886 C   0  0  0  0  0  0  0  0  0  0  0  0
   -2.6055    3.7785  -18.9215 O   0  0  0  0  0  0  0  0  0  0  0  0
   -3.3590    3.7085  -20.1014 C   0  0  0  0  0  0  0  0  0  0  0  0
   -0.8847    4.6184  -17.5477 C   0  0  0  0  0  0  0  0  0  0  0  0
   -1.4269    3.9916  -16.4256 O   0  0  0  0  0  0  0  0  0  0  0  0
    0.2617    5.3529  -17.3835 C   0  0  0  0  0  0  0  0  0  0  0  0
    0.8385    5.4484  -16.1245 O   0  0  0  0  0  0  0  0  0  0  0  0
    2.0262    6.1400  -15.8682 C   0  0  0  0  0  0  0  0  0  0  0  0
    0.8384    5.9939  -18.4661 C   0  0  0  0  0  0  0  0  0  0  0  0
  1  2  2  0
  2  3  1  0
  3  4  1  1
  3  5  1  0
  5  6  1  0
  6  7  2  0
  6  8  1  0
  8  9  2  0
  9 10  1  0
 10 11  2  0
 11 12  1  0
 12 13  1  0
 13 14  1  0
 12 15  2  0
 15 16  1  0
 15 17  1  0
 17 18  1  0
 18 19  1  0
 17 20  2  0
 20 10  1  0
M  END
$$$$
