
     RDKit          3D

 17 17  0  0  0  0  0  0  0  0999 V2000
   -1.9502   -7.1364  -55.6614 C   0  0  0  0  0  0  0  0  0  0  0  0
   -0.5198   -7.4947  -55.9647 C   0  0  0  0  0  0  0  0  0  0  0  0
    0.5507   -6.2924  -55.2295 S   0  0  0  0  0  6  0  0  0  0  0  0
    0.1668   -6.0377  -53.7915 O   0  0  0  0  0  0  0  0  0  0  0  0
    1.9277   -6.9468  -55.1243 O   0  0  0  0  0  0  0  0  0  0  0  0
    0.6124   -4.8853  -56.1586 N   0  0  0  0  0  0  0  0  0  0  0  0
    0.7886   -4.7360  -57.5413 C   0  0  0  0  0  0  0  0  0  0  0  0
    0.2157   -5.5740  -58.4670 C   0  0  0  0  0  0  0  0  0  0  0  0
    0.4144   -5.4319  -59.8407 C   0  0  0  0  0  0  0  0  0  0  0  0
   -0.2069   -6.3358  -60.8016 C   0  0  0  0  0  0  0  0  0  0  0  0
   -0.7588   -7.3933  -60.4030 O   0  0  0  0  0  0  0  0  0  0  0  0
   -0.2264   -6.0942  -62.1596 O   0  0  0  0  0  0  0  0  0  0  0  0
   -1.2943   -6.4817  -63.0063 C   0  0  0  0  0  0  0  0  0  0  0  0
    1.2264   -4.3948  -60.2381 C   0  0  0  0  0  0  0  0  0  0  0  0
    1.8113   -3.5426  -59.3207 C   0  0  0  0  0  0  0  0  0  0  0  0
    1.6150   -3.6833  -57.9704 C   0  0  0  0  0  0  0  0  0  0  0  0
    2.1881   -2.8450  -57.0338 O   0  0  0  0  0  0  0  0  0  0  0  0
  1  2  1  0
  2  3  1  0
  3  4  2  0
  3  5  2  0
  3  6  1  0
  6  7  1  0
  7  8  2  0
  8  9  1  0
  9 10  1  0
 10 11  2  0
 10 12  1  0
 12 13  1  0
  9 14  2  0
 14 15  1  0
 15 16  2  0
 16 17  1  0
 16  7  1  0
M  END
$$$$
