
     RDKit          3D

 22 24  0  0  0  0  0  0  0  0999 V2000
  173.1284  142.3319  160.9005 C   0  0  0  0  0  0  0  0  0  0  0  0
  173.0382  143.6536  160.2055 C   0  0  0  0  0  0  0  0  0  0  0  0
  171.7455  144.2793  160.4325 N   0  0  0  0  0  0  0  0  0  0  0  0
  170.5996  143.9369  159.6729 C   0  0  0  0  0  0  0  0  0  0  0  0
  170.6488  142.8951  158.8006 N   0  0  0  0  0  0  0  0  0  0  0  0
  169.6041  142.5119  158.0471 C   0  0  0  0  0  0  0  0  0  0  0  0
  169.7518  141.4268  157.1690 N   0  0  0  0  0  0  0  0  0  0  0  0
  168.8101  140.9400  156.2328 C   0  0  0  0  0  0  0  0  0  0  0  0
  169.1216  140.3977  155.0115 C   0  0  0  0  0  0  0  0  0  0  0  0
  168.1511  139.9201  154.1238 C   0  0  0  0  0  0  0  0  0  0  0  0
  166.8236  139.9814  154.4559 C   0  0  0  0  0  0  0  0  0  0  0  0
  165.5388  139.3823  153.3529 S   0  0  0  0  0  0  0  0  0  0  0  0
  166.4688  140.5193  155.6735 C   0  0  0  0  0  0  0  0  0  0  0  0
  164.7621  140.5972  156.0998 Cl  0  0  0  0  0  0  0  0  0  0  0  0
  167.4423  140.9789  156.5222 C   0  0  0  0  0  0  0  0  0  0  0  0
  168.4936  143.2162  158.1982 N   0  0  0  0  0  0  0  0  0  0  0  0
  168.3580  144.2543  159.0321 C   0  0  0  0  0  0  0  0  0  0  0  0
  167.1840  144.9575  159.1564 C   0  0  0  0  0  0  0  0  0  0  0  0
  167.0295  146.0275  160.0099 C   0  0  0  0  0  0  0  0  0  0  0  0
  168.1004  146.4180  160.7803 C   0  0  0  0  0  0  0  0  0  0  0  0
  169.2903  145.7241  160.6705 C   0  0  0  0  0  0  0  0  0  0  0  0
  169.4441  144.6461  159.8099 C   0  0  0  0  0  0  0  0  0  0  0  0
  1  2  1  0
  2  3  1  0
  3  4  1  0
  4  5  2  0
  5  6  1  0
  6  7  1  0
  7  8  1  0
  8  9  2  0
  9 10  1  0
 10 11  2  0
 11 12  1  0
 11 13  1  0
 13 14  1  0
 13 15  2  0
  6 16  2  0
 16 17  1  0
 17 18  2  0
 18 19  1  0
 19 20  2  0
 20 21  1  0
 21 22  2  0
 22  4  1  0
 15  8  1  0
 22 17  1  0
M  END
$$$$
