
     RDKit          3D

 25 28  0  0  0  0  0  0  0  0999 V2000
  154.0925  154.6428  149.8453 C   0  0  0  0  0  0  0  0  0  0  0  0
  153.1419  155.2692  150.7680 C   0  0  0  0  0  0  0  0  0  0  0  0
  151.8004  155.0721  150.6192 C   0  0  0  0  0  0  0  0  0  0  0  0
  150.8946  155.6712  151.5015 C   0  0  0  0  0  0  0  0  0  0  0  0
  151.3655  156.4607  152.5206 C   0  0  0  0  0  0  0  0  0  0  0  0
  150.4368  157.0613  153.4041 N   0  0  0  0  0  0  0  0  0  0  0  0
  151.0181  157.9443  154.7606 S   0  0  0  0  0  6  0  0  0  0  0  0
  152.5250  157.7469  154.8457 O   0  0  0  0  0  0  0  0  0  0  0  0
  150.7226  159.4049  154.6642 O   0  0  0  0  0  0  0  0  0  0  0  0
  150.2907  157.2444  156.1864 C   0  0  0  0  0  0  0  0  0  0  0  0
  150.4223  157.9438  157.3800 C   0  0  0  0  0  0  0  0  0  0  0  0
  149.8577  157.4202  158.5367 C   0  0  0  0  0  0  0  0  0  0  0  0
  149.1859  156.2290  158.4729 C   0  0  0  0  0  0  0  0  0  0  0  0
  149.0280  155.5006  157.3209 C   0  0  0  0  0  0  0  0  0  0  0  0
  149.6040  156.0486  156.1758 C   0  0  0  0  0  0  0  0  0  0  0  0
  148.2913  154.2155  157.2992 C   0  0  0  0  0  0  0  0  0  0  0  0
  148.2560  153.6021  158.6722 C   0  0  0  0  0  0  0  0  0  0  0  0
  147.9408  154.5681  159.7526 C   0  0  0  0  0  0  0  0  0  0  0  0
  147.1171  154.3849  160.6621 O   0  0  0  0  0  0  0  0  0  0  0  0
  148.6665  155.8176  159.7205 N   0  0  0  0  0  0  0  0  0  0  0  0
  149.0111  156.8016  160.6938 C   0  0  0  0  0  0  0  0  0  0  0  0
  149.7975  157.8665  159.9326 C   0  0  0  0  0  0  0  0  0  0  0  0
  152.7093  156.6698  152.6854 C   0  0  0  0  0  0  0  0  0  0  0  0
  153.6020  156.0606  151.7906 C   0  0  0  0  0  0  0  0  0  0  0  0
  155.0657  156.2554  151.9260 C   0  0  0  0  0  0  0  0  0  0  0  0
  1  2  1  0
  2  3  2  0
  3  4  1  0
  4  5  2  0
  5  6  1  0
  6  7  1  0
  7  8  2  0
  7  9  2  0
  7 10  1  0
 10 11  2  0
 11 12  1  0
 12 13  2  0
 13 14  1  0
 14 15  2  0
 14 16  1  0
 16 17  1  0
 17 18  1  0
 18 19  2  0
 18 20  1  0
 20 21  1  0
 21 22  1  0
  5 23  1  0
 23 24  2  0
 24 25  1  0
 24  2  1  0
 15 10  1  0
 22 12  1  0
 20 13  1  0
M  END
$$$$
