
     RDKit          3D

 27 29  0  0  0  0  0  0  0  0999 V2000
  151.0448  157.9378  147.5667 C   0  0  0  0  0  0  0  0  0  0  0  0
  152.2975  157.2980  147.4922 O   0  0  0  0  0  0  0  0  0  0  0  0
  152.9352  157.1071  146.2784 C   0  0  0  0  0  0  0  0  0  0  0  0
  152.7590  158.0675  145.3039 C   0  0  0  0  0  0  0  0  0  0  0  0
  153.3782  157.9136  144.0800 C   0  0  0  0  0  0  0  0  0  0  0  0
  154.1591  156.7941  143.8716 C   0  0  0  0  0  0  0  0  0  0  0  0
  154.3463  155.8260  144.8313 C   0  0  0  0  0  0  0  0  0  0  0  0
  155.1610  154.6960  144.5596 N   0  0  0  0  0  0  0  0  0  0  0  0
  156.3851  154.4526  145.1134 C   0  0  0  0  0  0  0  0  0  0  0  0
  156.8808  153.2792  144.6263 C   0  0  0  0  0  0  0  0  0  0  0  0
  155.9426  152.8203  143.7747 N   0  0  0  0  0  0  0  0  0  0  0  0
  154.9008  153.6679  143.7272 C   0  0  0  0  0  0  0  0  0  0  0  0
  153.3986  153.5299  142.7584 S   0  0  0  0  0  0  0  0  0  0  0  0
  152.8226  151.8298  142.8795 C   0  0  0  0  0  0  0  0  0  0  0  0
  153.0245  151.2635  144.2361 C   0  0  0  0  0  0  0  0  0  0  0  0
  152.3443  151.5887  145.2356 O   0  0  0  0  0  0  0  0  0  0  0  0
  154.0537  150.2961  144.3965 N   0  0  0  0  0  0  0  0  0  0  0  0
  154.4400  149.7866  145.6650 C   0  0  0  0  0  0  0  0  0  0  0  0
  155.7071  150.1214  146.1165 C   0  0  0  0  0  0  0  0  0  0  0  0
  156.6369  150.9615  145.3490 C   0  0  0  0  0  0  0  0  0  0  0  0
  156.0756  149.6281  147.3406 C   0  0  0  0  0  0  0  0  0  0  0  0
  155.2166  148.8370  148.0782 C   0  0  0  0  0  0  0  0  0  0  0  0
  153.9562  148.5123  147.6137 C   0  0  0  0  0  0  0  0  0  0  0  0
  153.5694  148.9996  146.3852 C   0  0  0  0  0  0  0  0  0  0  0  0
  152.3172  148.7206  145.8431 O   0  0  0  0  0  0  0  0  0  0  0  0
  151.2640  148.1872  146.6162 C   0  0  0  0  0  0  0  0  0  0  0  0
  153.7292  155.9839  146.0446 C   0  0  0  0  0  0  0  0  0  0  0  0
  1  2  1  0
  2  3  1  0
  3  4  2  0
  4  5  1  0
  5  6  2  0
  6  7  1  0
  7  8  1  0
  8  9  1  0
  9 10  2  0
 10 11  1  0
 11 12  2  0
 12 13  1  0
 13 14  1  0
 14 15  1  0
 15 16  2  0
 15 17  1  0
 17 18  1  0
 18 19  2  0
 19 20  1  0
 19 21  1  0
 21 22  2  0
 22 23  1  0
 23 24  2  0
 24 25  1  0
 25 26  1  0
  7 27  2  0
 27  3  1  0
 12  8  1  0
 24 18  1  0
M  END
$$$$
