
     RDKit          3D

 27 29  0  0  0  0  0  0  0  0999 V2000
  148.0687  144.2261  147.4154 C   0  0  0  0  0  0  0  0  0  0  0  0
  147.2411  144.5426  146.3204 O   0  0  0  0  0  0  0  0  0  0  0  0
  147.7468  145.1743  145.1971 C   0  0  0  0  0  0  0  0  0  0  0  0
  146.9303  145.2607  144.0885 C   0  0  0  0  0  0  0  0  0  0  0  0
  147.3979  145.8830  142.9487 C   0  0  0  0  0  0  0  0  0  0  0  0
  148.6774  146.4020  142.9576 C   0  0  0  0  0  0  0  0  0  0  0  0
  149.5057  146.3252  144.0536 C   0  0  0  0  0  0  0  0  0  0  0  0
  150.8123  146.8775  144.0041 N   0  0  0  0  0  0  0  0  0  0  0  0
  151.8864  146.3115  143.3795 C   0  0  0  0  0  0  0  0  0  0  0  0
  152.9785  147.1138  143.5334 C   0  0  0  0  0  0  0  0  0  0  0  0
  152.5497  148.1671  144.2566 N   0  0  0  0  0  0  0  0  0  0  0  0
  151.2440  148.0341  144.5457 C   0  0  0  0  0  0  0  0  0  0  0  0
  150.1927  149.1478  145.4778 S   0  0  0  0  0  0  0  0  0  0  0  0
  151.2079  149.9330  146.7386 C   0  0  0  0  0  0  0  0  0  0  0  0
  152.4099  150.5871  146.1651 C   0  0  0  0  0  0  0  0  0  0  0  0
  152.5553  150.8327  144.9460 O   0  0  0  0  0  0  0  0  0  0  0  0
  153.4500  150.9512  147.0632 N   0  0  0  0  0  0  0  0  0  0  0  0
  154.6505  151.5795  146.6364 C   0  0  0  0  0  0  0  0  0  0  0  0
  155.8122  150.8266  146.7066 C   0  0  0  0  0  0  0  0  0  0  0  0
  155.8425  149.4404  147.1934 C   0  0  0  0  0  0  0  0  0  0  0  0
  156.9678  151.4365  146.2937 C   0  0  0  0  0  0  0  0  0  0  0  0
  156.9611  152.7384  145.8324 C   0  0  0  0  0  0  0  0  0  0  0  0
  155.7939  153.4756  145.7688 C   0  0  0  0  0  0  0  0  0  0  0  0
  154.6232  152.8783  146.1798 C   0  0  0  0  0  0  0  0  0  0  0  0
  153.4033  153.5495  146.1485 O   0  0  0  0  0  0  0  0  0  0  0  0
  153.2219  154.7483  145.4263 C   0  0  0  0  0  0  0  0  0  0  0  0
  149.0365  145.7063  145.1826 C   0  0  0  0  0  0  0  0  0  0  0  0
  1  2  1  0
  2  3  1  0
  3  4  2  0
  4  5  1  0
  5  6  2  0
  6  7  1  0
  7  8  1  0
  8  9  1  0
  9 10  2  0
 10 11  1  0
 11 12  2  0
 12 13  1  0
 13 14  1  0
 14 15  1  0
 15 16  2  0
 15 17  1  0
 17 18  1  0
 18 19  2  0
 19 20  1  0
 19 21  1  0
 21 22  2  0
 22 23  1  0
 23 24  2  0
 24 25  1  0
 25 26  1  0
  7 27  2  0
 27  3  1  0
 12  8  1  0
 24 18  1  0
M  END
$$$$
