
     RDKit          3D

 21 22  0  0  0  0  0  0  0  0999 V2000
   42.3335   37.2413   26.8916 C   0  0  0  0  0  0  0  0  0  0  0  0
   41.7705   36.6399   25.5971 C   0  0  0  0  0  0  0  0  0  0  0  0
   42.0344   35.1553   25.5800 C   0  0  0  0  0  0  0  0  0  0  0  0
   43.1859   34.7979   24.9558 O   0  0  0  0  0  0  0  0  0  0  0  0
   43.5233   34.0282   23.8965 C   0  0  0  0  0  0  0  0  0  0  0  0
   44.5737   33.1419   23.9275 C   0  0  0  0  0  0  0  0  0  0  0  0
   44.8663   32.3852   22.8232 C   0  0  0  0  0  0  0  0  0  0  0  0
   44.1027   32.4993   21.6408 C   0  0  0  0  0  0  0  0  0  0  0  0
   44.4412   31.6901   20.5076 C   0  0  0  0  0  0  0  0  0  0  0  0
   45.1102   30.6156   20.7220 O   0  0  0  0  0  0  0  0  0  0  0  0
   44.1209   31.9422   19.1790 N   0  0  0  0  0  0  0  0  0  0  0  0
   44.5367   31.0134   18.1493 C   0  0  0  0  0  0  0  0  0  0  0  0
   45.0834   29.7592   18.3078 C   0  0  0  0  0  0  0  0  0  0  0  0
   45.3250   29.2337   17.0497 C   0  0  0  0  0  0  0  0  0  0  0  0
   45.9158   27.8889   16.7428 C   0  0  0  0  0  0  0  0  0  0  0  0
   44.9333   30.1484   16.2020 O   0  0  0  0  0  0  0  0  0  0  0  0
   44.4657   31.2045   16.8223 N   0  0  0  0  0  0  0  0  0  0  0  0
   43.0545   33.3845   21.6088 C   0  0  0  0  0  0  0  0  0  0  0  0
   42.2399   33.5720   20.4897 O   0  0  0  0  0  0  0  0  0  0  0  0
   41.3097   34.6230   20.4350 C   0  0  0  0  0  0  0  0  0  0  0  0
   42.7658   34.1408   22.7205 C   0  0  0  0  0  0  0  0  0  0  0  0
  1  2  1  0
  2  3  1  0
  3  4  1  0
  4  5  1  0
  5  6  2  0
  6  7  1  0
  7  8  2  0
  8  9  1  0
  9 10  2  0
  9 11  1  0
 11 12  1  0
 12 13  1  0
 13 14  2  0
 14 15  1  0
 14 16  1  0
 16 17  1  0
  8 18  1  0
 18 19  1  0
 19 20  1  0
 18 21  2  0
 21  5  1  0
 17 12  2  0
M  END
$$$$
