
     RDKit          3D

 23 24  0  0  0  0  0  0  0  0999 V2000
   24.4053   46.2542   30.1067 C   0  0  0  0  0  0  0  0  0  0  0  0
   23.4316   47.0005   29.4068 O   0  0  0  0  0  0  0  0  0  0  0  0
   23.7866   47.7075   28.2639 C   0  0  0  0  0  0  0  0  0  0  0  0
   23.8304   49.0851   28.2235 C   0  0  0  0  0  0  0  0  0  0  0  0
   24.1830   49.7765   27.0874 C   0  0  0  0  0  0  0  0  0  0  0  0
   24.5169   49.0736   25.9060 C   0  0  0  0  0  0  0  0  0  0  0  0
   24.8757   49.8332   24.7548 C   0  0  0  0  0  0  0  0  0  0  0  0
   23.9751   49.9839   23.8370 O   0  0  0  0  0  0  0  0  0  0  0  0
   26.1327   50.4831   24.4441 C   0  0  0  0  0  0  0  0  0  0  0  0
   26.2678   51.1482   23.3194 C   0  0  0  0  0  0  0  0  0  0  0  0
   27.3833   51.8545   22.7910 C   0  0  0  0  0  0  0  0  0  0  0  0
   27.1549   52.8755   21.8489 C   0  0  0  0  0  0  0  0  0  0  0  0
   28.1968   53.5878   21.3079 C   0  0  0  0  0  0  0  0  0  0  0  0
   29.5045   53.3460   21.6522 C   0  0  0  0  0  0  0  0  0  0  0  0
   30.5626   54.0641   21.1076 O   0  0  0  0  0  0  0  0  0  0  0  0
   29.7406   52.3556   22.5675 C   0  0  0  0  0  0  0  0  0  0  0  0
   28.6804   51.6201   23.1276 C   0  0  0  0  0  0  0  0  0  0  0  0
   29.0007   50.6371   24.0443 O   0  0  0  0  0  0  0  0  0  0  0  0
   30.3059   50.5189   24.5452 C   0  0  0  0  0  0  0  0  0  0  0  0
   24.4804   47.7080   25.9228 C   0  0  0  0  0  0  0  0  0  0  0  0
   24.7979   46.9882   24.7956 O   0  0  0  0  0  0  0  0  0  0  0  0
   23.9594   45.9255   24.4045 C   0  0  0  0  0  0  0  0  0  0  0  0
   24.1144   47.0436   27.1061 C   0  0  0  0  0  0  0  0  0  0  0  0
  1  2  1  0
  2  3  1  0
  3  4  2  0
  4  5  1  0
  5  6  2  0
  6  7  1  0
  7  8  2  0
  7  9  1  0
  9 10  2  3
 10 11  1  0
 11 12  2  0
 12 13  1  0
 13 14  2  0
 14 15  1  0
 14 16  1  0
 16 17  2  0
 17 18  1  0
 18 19  1  0
  6 20  1  0
 20 21  1  0
 21 22  1  0
 20 23  2  0
 23  3  1  0
 17 11  1  0
M  END
$$$$
