
     RDKit          3D

 15 15  0  0  0  0  0  0  0  0999 V2000
  125.1829  134.7344  146.0600 P   0  0  0  0  0  0  0  0  0  0  0  0
  126.5732  135.1827  144.9614 C   0  0  0  0  0  0  0  0  0  0  0  0
  126.4635  134.9400  143.6734 C   0  0  0  0  0  0  0  0  0  0  0  0
  127.5377  135.2621  142.7459 C   0  0  0  0  0  0  0  0  0  0  0  0
  127.4170  135.0406  141.4407 C   0  0  0  0  0  0  0  0  0  0  0  0
  128.5447  135.3667  140.5653 C   0  0  0  0  0  0  0  0  0  0  0  0
  128.4504  136.7424  139.9970 C   0  0  0  0  0  0  0  0  0  0  0  0
  129.4201  137.5393  140.0937 N   0  0  0  0  0  0  0  0  0  0  0  0
  129.2453  138.9272  139.8443 C   0  0  0  0  0  0  0  0  0  0  0  0
  128.9529  139.6937  141.0876 C   0  0  0  0  0  0  0  0  0  0  0  0
  129.8948  140.0794  141.9229 C   0  0  0  0  0  0  0  0  0  0  0  0
  129.2715  140.7993  143.0233 C   0  0  0  0  0  0  0  0  0  0  0  0
  127.9667  140.8483  142.8552 C   0  0  0  0  0  0  0  0  0  0  0  0
  126.8340  141.6237  143.9516 Cl  0  0  0  0  0  0  0  0  0  0  0  0
  127.6489  140.1455  141.6023 C   0  0  0  0  0  0  0  0  0  0  0  0
  1  2  1  0
  2  3  2  3
  3  4  1  0
  4  5  2  3
  5  6  1  0
  6  7  1  0
  7  8  2  3
  8  9  1  0
  9 10  1  0
 10 11  2  0
 11 12  1  0
 12 13  2  0
 13 14  1  0
 13 15  1  0
 15 10  1  0
M  END
$$$$
