
     RDKit          3D

 13 13  0  0  0  0  0  0  0  0999 V2000
   25.6195   10.7649  -33.5068 C   0  0  0  0  0  0  0  0  0  0  0  0
   24.2642   10.1706  -33.2667 C   0  0  0  0  0  0  0  0  0  0  0  0
   23.4100    9.9189  -34.2466 C   0  0  0  0  0  0  0  0  0  0  0  0
   22.0320    9.3984  -34.1259 C   0  0  0  0  0  0  0  0  0  0  0  0
   21.4267    9.2087  -32.9009 C   0  0  0  0  0  0  0  0  0  0  0  0
   20.1368    8.7180  -32.8930 C   0  0  0  0  0  0  0  0  0  0  0  0
   19.5822    8.5488  -31.6287 O   0  0  0  0  0  0  0  0  0  0  0  0
   19.4694    8.4254  -34.0540 C   0  0  0  0  0  0  0  0  0  0  0  0
   18.1789    7.9405  -33.8625 O   0  0  0  0  0  0  0  0  0  0  0  0
   20.0880    8.6201  -35.2817 C   0  0  0  0  0  0  0  0  0  0  0  0
   19.2854    8.2788  -36.3606 O   0  0  0  0  0  0  0  0  0  0  0  0
   19.6007    8.4671  -37.7055 C   0  0  0  0  0  0  0  0  0  0  0  0
   21.3790    9.1106  -35.3085 C   0  0  0  0  0  0  0  0  0  0  0  0
  1  2  1  0
  2  3  2  3
  3  4  1  0
  4  5  2  0
  5  6  1  0
  6  7  1  0
  6  8  2  0
  8  9  1  0
  8 10  1  0
 10 11  1  0
 11 12  1  0
 10 13  2  0
 13  4  1  0
M  END
$$$$
