
     RDKit          3D

 22 23  0  0  0  0  0  0  0  0999 V2000
  127.2865  139.4386  146.5498 N   0  0  0  0  0  0  0  0  0  0  0  0
  126.5422  138.3720  146.1208 N   0  0  0  0  0  0  0  0  0  0  0  0
  125.7867  137.5880  146.7636 C   0  0  0  0  0  0  0  0  0  0  0  0
  125.7621  137.7370  148.1986 N   0  0  0  0  0  0  0  0  0  0  0  0
  126.4124  138.8971  148.7503 C   0  0  0  0  0  0  0  0  0  0  0  0
  126.1465  139.0359  150.2215 C   0  0  0  0  0  0  0  0  0  0  0  0
  125.0607  138.2528  150.6242 O   0  0  0  0  0  0  0  0  0  0  0  0
  124.9928  136.5757  146.1083 C   0  0  0  0  0  0  0  0  0  0  0  0
  123.8574  136.0473  146.7463 C   0  0  0  0  0  0  0  0  0  0  0  0
  123.1054  135.0692  146.1350 C   0  0  0  0  0  0  0  0  0  0  0  0
  123.4149  134.5629  144.8912 C   0  0  0  0  0  0  0  0  0  0  0  0
  124.5244  135.0765  144.2640 C   0  0  0  0  0  0  0  0  0  0  0  0
  125.3031  136.0739  144.8722 C   0  0  0  0  0  0  0  0  0  0  0  0
  126.4541  136.5615  144.1950 N   0  0  0  0  0  0  0  0  0  0  0  0
  126.6086  136.2336  142.9579 C   0  0  0  0  0  0  0  0  0  0  0  0
  127.5105  136.9446  142.0635 C   0  0  0  0  0  0  0  0  0  0  0  0
  128.2428  137.9984  142.3263 C   0  0  0  0  0  0  0  0  0  0  0  0
  129.0060  138.4067  141.1671 C   0  0  0  0  0  0  0  0  0  0  0  0
  128.7238  137.5760  140.1839 C   0  0  0  0  0  0  0  0  0  0  0  0
  129.4094  137.6653  138.5650 Cl  0  0  0  0  0  0  0  0  0  0  0  0
  127.7536  136.5694  140.6527 C   0  0  0  0  0  0  0  0  0  0  0  0
  128.5054  134.9544  140.6302 Cl  0  0  0  0  0  0  0  0  0  0  0  0
  1  2  1  0
  2  3  2  3
  3  4  1  0
  4  5  1  0
  5  6  1  0
  6  7  1  0
  3  8  1  0
  8  9  2  0
  9 10  1  0
 10 11  2  0
 11 12  1  0
 12 13  2  0
 13 14  1  0
 14 15  2  3
 15 16  1  0
 16 17  2  0
 17 18  1  0
 18 19  2  0
 19 20  1  0
 19 21  1  0
 21 22  1  0
 13  8  1  0
 21 16  1  0
M  END
$$$$
