
     RDKit          3D

 17 16  0  0  0  0  0  0  0  0999 V2000
  126.8777  136.5632  142.8122 C   0  0  0  0  0  0  0  0  0  0  0  0
  127.0517  136.0909  141.5943 C   0  0  0  0  0  0  0  0  0  0  0  0
  128.3248  135.3913  141.2739 C   0  0  1  0  0  0  0  0  0  0  0  0
  129.4562  136.1918  141.8577 C   0  0  0  0  0  0  0  0  0  0  0  0
  128.2315  134.1164  141.8632 O   0  0  0  0  0  0  0  0  0  0  0  0
  128.5295  135.2668  139.7854 C   0  0  0  0  0  0  0  0  0  0  0  0
  128.2915  136.5599  139.0884 C   0  0  0  0  0  0  0  0  0  0  0  0
  127.1796  136.6918  138.4805 O   0  0  0  0  0  0  0  0  0  0  0  0
  129.2573  137.6043  139.0970 N   0  0  0  0  0  0  0  0  0  0  0  0
  129.0195  138.7945  138.3545 C   0  0  2  0  0  0  0  0  0  0  0  0
  130.2314  139.0934  137.4565 C   0  0  0  0  0  0  0  0  0  0  0  0
  128.8606  140.0252  139.1990 C   0  0  0  0  0  0  0  0  0  0  0  0
  128.8311  139.7704  140.6667 C   0  0  0  0  0  0  0  0  0  0  0  0
  128.1569  140.8387  141.4395 C   0  0  0  0  0  0  0  0  0  0  0  0
  127.9752  140.8013  142.7454 C   0  0  0  0  0  0  0  0  0  0  0  0
  126.9864  141.7137  143.3667 C   0  0  0  0  0  0  0  0  0  0  0  0
  128.7330  139.8711  143.6111 C   0  0  0  0  0  0  0  0  0  0  0  0
  1  2  2  0
  2  3  1  0
  3  4  1  1
  3  5  1  0
  3  6  1  0
  6  7  1  0
  7  8  2  0
  7  9  1  0
  9 10  1  0
 10 11  1  6
 10 12  1  0
 12 13  1  0
 13 14  1  0
 14 15  2  3
 15 16  1  0
 15 17  1  0
M  END
$$$$
