
     RDKit          3D

 17 18  0  0  0  0  0  0  0  0999 V2000
  173.8421  143.7284  160.0109 N   0  0  0  0  0  0  0  0  0  0  0  0
  173.1041  143.0250  159.1229 O   0  0  0  0  0  0  0  0  0  0  0  0
  171.7901  142.8839  159.5154 C   0  0  0  0  0  0  0  0  0  0  0  0
  170.9557  142.1702  158.4750 C   0  0  0  0  0  0  0  0  0  0  0  0
  169.5588  142.3024  158.8300 C   0  0  0  0  0  0  0  0  0  0  0  0
  169.2870  142.8260  160.0640 N   0  0  0  0  0  0  0  0  0  0  0  0
  168.0387  142.9337  160.5337 C   0  0  0  0  0  0  0  0  0  0  0  0
  167.8087  143.4989  161.8569 C   0  0  0  0  0  0  0  0  0  0  0  0
  166.5952  143.7599  162.3096 C   0  0  0  0  0  0  0  0  0  0  0  0
  166.3915  144.3354  163.5497 O   0  0  0  0  0  1  0  0  0  0  0  0
  167.0419  142.5060  159.7460 N   0  0  0  0  0  0  0  0  0  0  0  0
  167.2229  141.9825  158.5252 C   0  0  0  0  0  0  0  0  0  0  0  0
  166.1864  141.5651  157.7248 C   0  0  0  0  0  0  0  0  0  0  0  0
  166.4446  141.0502  156.4628 C   0  0  0  0  0  0  0  0  0  0  0  0
  167.7179  140.9459  155.9881 C   0  0  0  0  0  0  0  0  0  0  0  0
  168.7934  141.3667  156.7912 C   0  0  0  0  0  0  0  0  0  0  0  0
  168.5306  141.8708  158.0340 C   0  0  0  0  0  0  0  0  0  0  0  0
  1  2  1  0
  2  3  1  0
  3  4  1  0
  4  5  1  0
  5  6  2  0
  6  7  1  0
  7  8  1  0
  8  9  2  3
  9 10  1  0
  7 11  2  0
 11 12  1  0
 12 13  2  0
 13 14  1  0
 14 15  2  0
 15 16  1  0
 16 17  2  0
 17  5  1  0
 17 12  1  0
M  CHG  1  10  -1
M  END
$$$$
