
     RDKit          3D

 27 29  0  0  0  0  0  0  0  0999 V2000
  128.5778  135.6803  139.6799 C   0  0  0  0  0  0  0  0  0  0  0  0
  128.4519  136.7982  140.6698 C   0  0  0  0  0  0  0  0  0  0  0  0
  128.2191  136.5527  141.9862 C   0  0  0  0  0  0  0  0  0  0  0  0
  128.1087  137.5990  142.8686 C   0  0  0  0  0  0  0  0  0  0  0  0
  128.2279  138.8993  142.4562 C   0  0  0  0  0  0  0  0  0  0  0  0
  128.1044  140.0241  143.4329 C   0  0  0  0  0  0  0  0  0  0  0  0
  128.0910  141.3426  143.0387 C   0  0  0  0  0  0  0  0  0  0  0  0
  127.9344  142.1453  144.5395 S   0  0  0  0  0  0  0  0  0  0  0  0
  127.8963  140.7804  145.5571 C   0  0  0  0  0  0  0  0  0  0  0  0
  127.7745  140.7822  146.9853 N   0  0  0  0  0  0  0  0  0  0  0  0
  128.4195  141.7449  147.8038 C   0  0  0  0  0  0  0  0  0  0  0  0
  128.9169  142.7517  147.2362 O   0  0  0  0  0  0  0  0  0  0  0  0
  128.5490  141.6524  149.2650 C   0  0  0  0  0  0  0  0  0  0  0  0
  128.7778  143.2148  150.0448 S   0  0  0  0  0  6  0  0  0  0  0  0
  128.5631  143.1424  151.5308 O   0  0  0  0  0  0  0  0  0  0  0  0
  130.1303  143.7694  149.7324 O   0  0  0  0  0  0  0  0  0  0  0  0
  127.5414  144.3029  149.4098 C   0  0  0  0  0  0  0  0  0  0  0  0
  126.2244  143.8969  149.2903 C   0  0  0  0  0  0  0  0  0  0  0  0
  125.2804  144.7866  148.7845 C   0  0  0  0  0  0  0  0  0  0  0  0
  125.5988  146.0611  148.3948 C   0  0  0  0  0  0  0  0  0  0  0  0
  124.6273  146.8808  147.9083 F   0  0  0  0  0  0  0  0  0  0  0  0
  126.9131  146.4641  148.5147 C   0  0  0  0  0  0  0  0  0  0  0  0
  127.8607  145.5830  149.0182 C   0  0  0  0  0  0  0  0  0  0  0  0
  128.0045  139.7839  144.7049 N   0  0  0  0  0  0  0  0  0  0  0  0
  128.4635  139.1275  141.1195 C   0  0  0  0  0  0  0  0  0  0  0  0
  128.5751  138.0942  140.2326 C   0  0  0  0  0  0  0  0  0  0  0  0
  128.8281  138.4040  138.8125 C   0  0  0  0  0  0  0  0  0  0  0  0
  1  2  1  0
  2  3  2  0
  3  4  1  0
  4  5  2  0
  5  6  1  0
  6  7  2  0
  7  8  1  0
  8  9  1  0
  9 10  1  0
 10 11  1  0
 11 12  2  0
 11 13  1  0
 13 14  1  0
 14 15  2  0
 14 16  2  0
 14 17  1  0
 17 18  2  0
 18 19  1  0
 19 20  2  0
 20 21  1  0
 20 22  1  0
 22 23  2  0
  9 24  2  0
  5 25  1  0
 25 26  2  0
 26 27  1  0
 26  2  1  0
 24  6  1  0
 23 17  1  0
M  END
$$$$
