
     RDKit          3D

 27 29  0  0  0  0  0  0  0  0999 V2000
  115.4150  145.9991  133.7923 C   0  0  0  0  0  0  0  0  0  0  0  0
  116.6139  146.1395  134.6801 C   0  0  0  0  0  0  0  0  0  0  0  0
  116.5200  146.7162  135.9073 C   0  0  0  0  0  0  0  0  0  0  0  0
  117.6374  146.8301  136.6974 C   0  0  0  0  0  0  0  0  0  0  0  0
  118.8592  146.3740  136.2801 C   0  0  0  0  0  0  0  0  0  0  0  0
  120.0634  146.5076  137.1554 C   0  0  0  0  0  0  0  0  0  0  0  0
  121.3431  146.5219  136.6491 C   0  0  0  0  0  0  0  0  0  0  0  0
  122.2714  146.6916  138.0742 S   0  0  0  0  0  0  0  0  0  0  0  0
  120.9990  146.7331  139.2051 C   0  0  0  0  0  0  0  0  0  0  0  0
  121.1232  146.8652  140.6271 N   0  0  0  0  0  0  0  0  0  0  0  0
  120.2692  147.7008  141.3921 C   0  0  0  0  0  0  0  0  0  0  0  0
  119.4164  148.3861  140.7707 O   0  0  0  0  0  0  0  0  0  0  0  0
  120.3077  147.8242  142.8563 C   0  0  0  0  0  0  0  0  0  0  0  0
  118.7307  148.1481  143.5701 S   0  0  0  0  0  6  0  0  0  0  0  0
  118.2301  146.9891  144.3860 O   0  0  0  0  0  0  0  0  0  0  0  0
  118.7677  149.3963  144.3919 O   0  0  0  0  0  0  0  0  0  0  0  0
  117.5879  148.3595  142.2415 C   0  0  0  0  0  0  0  0  0  0  0  0
  116.9640  147.2730  141.6551 C   0  0  0  0  0  0  0  0  0  0  0  0
  116.0692  147.4837  140.6095 C   0  0  0  0  0  0  0  0  0  0  0  0
  115.7741  148.7323  140.1282 C   0  0  0  0  0  0  0  0  0  0  0  0
  114.8895  148.8688  139.1028 F   0  0  0  0  0  0  0  0  0  0  0  0
  116.3975  149.8148  140.7145 C   0  0  0  0  0  0  0  0  0  0  0  0
  117.2912  149.6133  141.7578 C   0  0  0  0  0  0  0  0  0  0  0  0
  119.9332  146.6160  138.4427 N   0  0  0  0  0  0  0  0  0  0  0  0
  118.9339  145.7931  135.0345 C   0  0  0  0  0  0  0  0  0  0  0  0
  117.8288  145.6744  134.2399 C   0  0  0  0  0  0  0  0  0  0  0  0
  117.9738  145.0421  132.9148 C   0  0  0  0  0  0  0  0  0  0  0  0
  1  2  1  0
  2  3  2  0
  3  4  1  0
  4  5  2  0
  5  6  1  0
  6  7  2  0
  7  8  1  0
  8  9  1  0
  9 10  1  0
 10 11  1  0
 11 12  2  0
 11 13  1  0
 13 14  1  0
 14 15  2  0
 14 16  2  0
 14 17  1  0
 17 18  2  0
 18 19  1  0
 19 20  2  0
 20 21  1  0
 20 22  1  0
 22 23  2  0
  9 24  2  0
  5 25  1  0
 25 26  2  0
 26 27  1  0
 26  2  1  0
 24  6  1  0
 23 17  1  0
M  END
$$$$
