
     RDKit          3D

 18 20  0  0  0  0  0  0  0  0999 V2000
  133.7474  143.4513  123.7596 C   0  0  0  0  0  0  0  0  0  0  0  0
  134.8161  144.2925  123.4037 O   0  0  0  0  0  0  0  0  0  0  0  0
  136.1321  143.8941  123.2316 C   0  0  0  0  0  0  0  0  0  0  0  0
  136.5893  142.6209  122.8962 C   0  0  0  0  0  0  0  0  0  0  0  0
  137.9351  142.3825  122.7613 C   0  0  0  0  0  0  0  0  0  0  0  0
  138.8506  143.4014  122.9563 C   0  0  0  0  0  0  0  0  0  0  0  0
  138.4148  144.6550  123.2857 C   0  0  0  0  0  0  0  0  0  0  0  0
  139.3770  145.6277  123.4668 C   0  0  0  0  0  0  0  0  0  0  0  0
  140.6155  145.4449  123.3514 O   0  0  0  0  0  0  0  0  0  0  0  0
  138.9677  146.9042  123.8002 C   0  0  0  0  0  0  0  0  0  0  0  0
  139.7868  147.9918  124.0174 C   0  0  0  0  0  0  0  0  0  0  0  0
  139.2149  149.1940  124.3421 C   0  0  0  0  0  0  0  0  0  0  0  0
  137.8550  149.3952  124.4688 C   0  0  0  0  0  0  0  0  0  0  0  0
  137.2984  150.6237  124.7991 O   0  0  0  0  0  0  0  0  0  0  0  0
  137.0295  148.2925  124.2484 C   0  0  0  0  0  0  0  0  0  0  0  0
  137.6045  147.0830  123.9217 C   0  0  0  0  0  0  0  0  0  0  0  0
  136.7200  146.1337  123.7418 O   0  0  0  0  0  0  0  0  0  0  0  0
  137.0612  144.9116  123.4255 C   0  0  0  0  0  0  0  0  0  0  0  0
  1  2  1  0
  2  3  1  0
  3  4  2  0
  4  5  1  0
  5  6  2  0
  6  7  1  0
  7  8  1  0
  8  9  2  0
  8 10  1  0
 10 11  2  0
 11 12  1  0
 12 13  2  0
 13 14  1  0
 13 15  1  0
 15 16  2  0
 16 17  1  0
 17 18  1  0
 18  3  1  0
 18  7  2  0
 16 10  1  0
M  END
$$$$
