
     RDKit          3D

 14 13  0  0  0  0  0  0  0  0999 V2000
  161.0069  151.2052  170.6216 C   0  0  0  0  0  0  0  0  0  0  0  0
  160.2337  150.8595  171.8169 C   0  0  0  0  0  0  0  0  0  0  0  0
  160.9488  151.1876  173.3931 Cl  0  0  0  0  0  0  0  0  0  0  0  0
  159.0461  150.3227  171.7652 C   0  0  0  0  0  0  0  0  0  0  0  0
  158.0665  150.0865  172.8154 C   0  0  0  0  0  0  0  0  0  0  0  0
  156.7841  149.5977  172.4364 N   0  0  0  0  0  0  0  0  0  0  0  0
  155.8341  150.6115  172.4662 O   0  0  0  0  0  0  0  0  0  0  0  0
  154.5462  150.2717  172.0209 C   0  0  0  0  0  0  0  0  0  0  0  0
  153.7157  149.4078  172.7571 N   0  0  0  0  0  0  0  0  0  0  0  0
  153.6511  149.5135  174.0330 C   0  0  0  0  0  0  0  0  0  0  0  0
  152.3545  148.5201  174.9755 Br  0  0  0  0  0  0  0  0  0  0  0  0
  154.1174  150.7598  170.9185 N   0  0  0  0  0  0  0  0  0  0  0  0
  154.9761  150.8834  169.7688 C   0  0  0  0  0  0  0  0  0  0  0  0
  154.1915  151.2053  168.6513 O   0  0  0  0  0  1  0  0  0  0  0  0
  1  2  1  0
  2  3  1  0
  2  4  2  3
  4  5  1  0
  5  6  1  0
  6  7  1  0
  7  8  1  0
  8  9  1  0
  9 10  2  3
 10 11  1  0
  8 12  2  3
 12 13  1  0
 13 14  1  0
M  CHG  1  14   1
M  RAD  1  14   3
M  END
$$$$
