
     RDKit          3D

 15 16  0  0  0  0  0  0  0  0999 V2000
 4373.7051 6542.7920-5798.2266 C   0  0  0  0  0  0  0  0  0  0  0  0
 4374.6060 6543.5801-5799.1431 C   0  0  0  0  0  0  0  0  0  0  0  0
 4373.7295 6544.3979-5800.0693 C   0  0  0  0  0  0  0  0  0  0  0  0
 4375.3911 6544.4458-5798.4199 O   0  0  0  0  0  0  0  0  0  0  0  0
 4375.4136 6542.6709-5800.0073 C   0  0  0  0  0  0  0  0  0  0  0  0
 4376.7148 6542.6343-5800.0156 C   0  0  0  0  0  0  0  0  0  0  0  0
 4377.5757 6543.3281-5800.9795 C   0  0  0  0  0  0  0  0  0  0  0  0
 4377.8232 6544.6836-5800.9419 C   0  0  0  0  0  0  0  0  0  0  0  0
 4378.6396 6545.3169-5801.8569 C   0  0  0  0  0  0  0  0  0  0  0  0
 4379.2295 6544.5752-5802.8496 C   0  0  0  0  0  0  0  0  0  0  0  0
 4380.0815 6544.8853-5803.9033 C   0  0  0  0  0  0  0  0  0  0  0  0
 4380.3774 6543.7378-5804.6069 C   0  0  0  0  0  0  0  0  0  0  0  0
 4379.7144 6542.7412-5803.9941 N   0  0  0  0  0  0  0  0  0  0  0  0
 4379.0171 6543.2021-5802.9375 C   0  0  0  0  0  0  0  0  0  0  0  0
 4378.1934 6542.6187-5801.9966 C   0  0  0  0  0  0  0  0  0  0  0  0
  1  2  1  0
  2  3  1  0
  2  4  1  0
  2  5  1  0
  5  6  2  0
  6  7  1  0
  7  8  2  0
  8  9  1  0
  9 10  2  0
 10 11  1  0
 11 12  2  0
 12 13  1  0
 13 14  1  0
 14 15  2  0
 15  7  1  0
 14 10  1  0
M  END
$$$$
