
     RDKit          3D

 18 18  0  0  0  0  0  0  0  0999 V2000
   -3.8993   50.0727   10.4628 N   0  0  0  0  0  0  0  0  0  0  0  0
   -2.8417   51.0553   10.6226 C   0  0  0  0  0  0  0  0  0  0  0  0
   -2.8515   51.4732   12.0531 C   0  0  0  0  0  0  0  0  0  0  0  0
   -3.8660   52.0991   12.6175 C   0  0  0  0  0  0  0  0  0  0  0  0
   -3.6303   53.4207   13.2340 C   0  0  0  0  0  0  0  0  0  0  0  0
   -2.4243   54.0275   12.5039 C   0  0  0  0  0  0  0  0  0  0  0  0
   -1.8167   55.0646   13.3170 N   0  0  0  0  0  0  0  0  0  0  0  0
   -2.3640   56.1025   13.8544 C   0  0  0  0  0  0  0  0  0  0  0  0
   -1.4508   56.9688   14.6306 C   0  0  0  0  0  0  0  0  0  0  0  0
   -0.1400   57.1968   14.0003 C   0  0  0  0  0  0  0  0  0  0  0  0
    0.7069   56.2206   13.7581 C   0  0  0  0  0  0  0  0  0  0  0  0
    2.2924   56.5723   13.1294 Cl  0  0  0  0  0  0  0  0  0  0  0  0
   -3.7333   56.4480   13.7496 N   0  0  0  0  0  0  0  0  0  0  0  0
   -4.7569   55.6926   13.4262 C   0  0  0  0  0  0  0  0  0  0  0  0
   -4.7532   54.3128   13.0933 N   0  0  0  0  0  0  0  0  0  0  0  0
   -5.9916   53.7863   12.5702 C   0  0  0  0  0  0  0  0  0  0  0  0
   -6.8197   53.0605   13.5838 C   0  0  0  0  0  0  0  0  0  0  0  0
   -6.2021   51.8166   13.8387 O   0  0  0  0  0  0  0  0  0  0  0  0
  1  2  1  0
  2  3  1  0
  3  4  2  3
  4  5  1  0
  5  6  1  0
  6  7  1  0
  7  8  2  0
  8  9  1  0
  9 10  1  0
 10 11  2  3
 11 12  1  0
  8 13  1  0
 13 14  2  0
 14 15  1  0
 15 16  1  0
 16 17  1  0
 17 18  1  0
 15  5  1  0
M  END
$$$$
