
     RDKit          3D

 22 24  0  0  0  0  0  0  0  0999 V2000
  115.1816  131.9619  126.8583 C   0  0  0  0  0  0  0  0  0  0  0  0
  116.1029  133.0529  126.3410 C   0  0  0  0  0  0  0  0  0  0  0  0
  115.3634  134.2638  125.9040 C   0  0  0  0  0  0  0  0  0  0  0  0
  115.1933  134.7546  124.6965 C   0  0  0  0  0  0  0  0  0  0  0  0
  115.7272  134.1822  123.4239 C   0  0  0  0  0  0  0  0  0  0  0  0
  115.0276  132.8547  123.1513 C   0  0  0  0  0  0  0  0  0  0  0  0
  115.9073  132.0911  122.2361 C   0  0  0  0  0  0  0  0  0  0  0  0
  115.3505  131.9332  121.0498 N   0  0  0  0  0  0  0  0  0  0  0  0
  114.0862  132.4025  120.6594 C   0  0  0  0  0  0  0  0  0  0  0  0
  113.7609  133.7611  120.5126 N   0  0  0  0  0  0  0  0  0  0  0  0
  114.4662  134.9800  120.4210 C   0  0  0  0  0  0  0  0  0  0  0  0
  114.2697  136.1353  119.2375 P   0  0  0  0  0  5  0  0  0  0  0  0
  115.6116  137.0013  119.4135 C   0  0  0  0  0  0  0  0  0  0  0  0
  116.3159  138.1370  118.2686 Cl  0  0  0  0  0  0  0  0  0  0  0  0
  116.1412  136.7415  120.7090 C   0  0  0  0  0  0  0  0  0  0  0  0
  115.8460  138.1690  121.7512 Cl  0  0  0  0  0  0  0  0  0  0  0  0
  115.4825  135.5115  121.3016 C   0  0  0  0  0  0  0  0  0  0  0  0
  115.8094  135.0587  122.4038 N   0  0  0  0  0  0  0  0  0  0  0  0
  117.1620  131.5488  122.5296 N   0  0  0  0  0  0  0  0  0  0  0  0
  117.9428  131.5426  123.7013 C   0  0  0  0  0  0  0  0  0  0  0  0
  117.1809  131.4084  125.0220 C   0  0  0  0  0  0  0  0  0  0  0  0
  117.1079  132.6521  125.5446 O   0  0  0  0  0  0  0  0  0  0  0  0
  1  2  1  0
  2  3  1  0
  3  4  2  0
  4  5  1  0
  5  6  1  0
  6  7  1  0
  7  8  2  0
  8  9  1  0
  9 10  1  0
 10 11  1  0
 11 12  2  0
 12 13  2  0
 13 14  1  0
 13 15  1  0
 15 16  1  0
 15 17  1  0
 17 18  2  0
  7 19  1  0
 19 20  1  0
 20 21  1  0
 21 22  1  0
 22  2  1  0
 18  5  1  0
 17 11  1  0
M  END
$$$$
