
     RDKit          3D

 30 33  0  0  0  0  0  0  0  0999 V2000
   23.1518   35.6062   24.1762 C   0  0  0  0  0  0  0  0  0  0  0  0
   23.5284   34.1934   24.2030 C   0  0  0  0  0  0  0  0  0  0  0  0
   22.5651   33.2199   24.4938 C   0  0  0  0  0  0  0  0  0  0  0  0
   22.9131   31.9067   24.5354 C   0  0  0  0  0  0  0  0  0  0  0  0
   24.2360   31.4704   24.2940 C   0  0  0  0  0  0  0  0  0  0  0  0
   24.5242   30.0461   24.3713 C   0  0  0  0  0  0  0  0  0  0  0  0
   25.7566   29.4645   24.0163 C   0  0  0  0  0  0  0  0  0  0  0  0
   25.6851   28.1167   24.2120 C   0  0  0  0  0  0  0  0  0  0  0  0
   26.6450   27.0963   24.0313 C   0  0  0  0  0  0  0  0  0  0  0  0
   28.2086   27.5964   23.4183 S   0  0  0  0  0  0  0  0  0  0  0  0
   29.3607   26.2393   23.3501 C   0  0  0  0  0  0  0  0  0  0  0  0
   28.7944   25.0119   22.7434 C   0  0  0  0  0  0  0  0  0  0  0  0
   29.3678   23.9107   23.0114 O   0  0  0  0  0  0  0  0  0  0  0  0
   27.6538   24.9909   21.9035 N   0  0  0  0  0  0  0  0  0  0  0  0
   27.0935   23.7986   21.3814 C   0  0  0  0  0  0  0  0  0  0  0  0
   27.8104   22.5980   21.4413 C   0  0  0  0  0  0  0  0  0  0  0  0
   27.3342   21.4041   20.9422 C   0  0  0  0  0  0  0  0  0  0  0  0
   28.0501   20.2504   21.0165 F   0  0  0  0  0  0  0  0  0  0  0  0
   26.0936   21.3996   20.3564 C   0  0  0  0  0  0  0  0  0  0  0  0
   25.3621   22.5706   20.2808 C   0  0  0  0  0  0  0  0  0  0  0  0
   25.8611   23.7784   20.7958 C   0  0  0  0  0  0  0  0  0  0  0  0
   24.8580   25.2220   20.6669 Cl  0  0  0  0  0  0  0  0  0  0  0  0
   26.2724   25.8741   24.3346 N   0  0  0  0  0  0  0  0  0  0  0  0
   25.0274   25.5961   24.7979 C   0  0  0  0  0  0  0  0  0  0  0  0
   24.0982   26.6145   24.9695 C   0  0  0  0  0  0  0  0  0  0  0  0
   24.4639   27.8619   24.6668 N   0  0  0  0  0  0  0  0  0  0  0  0
   23.7730   29.0238   24.7593 N   0  0  0  0  0  0  0  0  0  0  0  0
   25.1691   32.4278   24.0084 C   0  0  0  0  0  0  0  0  0  0  0  0
   24.8258   33.7815   23.9617 C   0  0  0  0  0  0  0  0  0  0  0  0
   25.8547   34.8018   23.6435 C   0  0  0  0  0  0  0  0  0  0  0  0
  1  2  1  0
  2  3  2  0
  3  4  1  0
  4  5  2  0
  5  6  1  0
  6  7  1  0
  7  8  2  0
  8  9  1  0
  9 10  1  0
 10 11  1  0
 11 12  1  0
 12 13  2  0
 12 14  1  0
 14 15  1  0
 15 16  2  0
 16 17  1  0
 17 18  1  0
 17 19  2  0
 19 20  1  0
 20 21  2  0
 21 22  1  0
  9 23  2  0
 23 24  1  0
 24 25  2  0
 25 26  1  0
 26 27  1  0
  5 28  1  0
 28 29  2  0
 29 30  1  0
 29  2  1  0
 27  6  2  0
 26  8  1  0
 21 15  1  0
M  END
$$$$
