
     RDKit          3D

 30 33  0  0  0  0  0  0  0  0999 V2000
   41.0832   37.6250   31.1089 C   0  0  0  0  0  0  0  0  0  0  0  0
   42.1666   36.8576   30.4958 C   0  0  0  0  0  0  0  0  0  0  0  0
   43.3650   36.6628   31.1931 C   0  0  0  0  0  0  0  0  0  0  0  0
   44.3809   35.9637   30.6218 C   0  0  0  0  0  0  0  0  0  0  0  0
   44.2793   35.4134   29.3235 C   0  0  0  0  0  0  0  0  0  0  0  0
   45.4204   34.6898   28.7830 C   0  0  0  0  0  0  0  0  0  0  0  0
   45.4530   34.0974   27.5059 C   0  0  0  0  0  0  0  0  0  0  0  0
   46.6684   33.5071   27.3203 C   0  0  0  0  0  0  0  0  0  0  0  0
   47.2068   32.8089   26.2167 C   0  0  0  0  0  0  0  0  0  0  0  0
   46.1542   32.6122   24.8296 S   0  0  0  0  0  0  0  0  0  0  0  0
   46.7394   31.3421   23.7260 C   0  0  0  0  0  0  0  0  0  0  0  0
   46.5783   29.9707   24.2634 C   0  0  0  0  0  0  0  0  0  0  0  0
   45.4036   29.4884   24.2887 O   0  0  0  0  0  0  0  0  0  0  0  0
   47.6470   29.1672   24.7314 N   0  0  0  0  0  0  0  0  0  0  0  0
   47.4734   27.8479   25.2186 C   0  0  0  0  0  0  0  0  0  0  0  0
   46.3770   27.0825   24.8048 C   0  0  0  0  0  0  0  0  0  0  0  0
   46.1375   25.7986   25.2471 C   0  0  0  0  0  0  0  0  0  0  0  0
   45.0660   25.0751   24.8261 F   0  0  0  0  0  0  0  0  0  0  0  0
   47.0223   25.2492   26.1401 C   0  0  0  0  0  0  0  0  0  0  0  0
   48.1142   25.9815   26.5688 C   0  0  0  0  0  0  0  0  0  0  0  0
   48.3446   27.2879   26.1071 C   0  0  0  0  0  0  0  0  0  0  0  0
   49.7667   28.1463   26.6970 Cl  0  0  0  0  0  0  0  0  0  0  0  0
   48.4391   32.3716   26.3383 N   0  0  0  0  0  0  0  0  0  0  0  0
   49.1660   32.5746   27.4662 C   0  0  0  0  0  0  0  0  0  0  0  0
   48.6182   33.2648   28.5403 C   0  0  0  0  0  0  0  0  0  0  0  0
   47.3671   33.7165   28.4299 N   0  0  0  0  0  0  0  0  0  0  0  0
   46.6121   34.4261   29.3029 N   0  0  0  0  0  0  0  0  0  0  0  0
   43.1047   35.6065   28.6514 C   0  0  0  0  0  0  0  0  0  0  0  0
   42.0515   36.3226   29.2263 C   0  0  0  0  0  0  0  0  0  0  0  0
   40.7839   36.5139   28.4797 C   0  0  0  0  0  0  0  0  0  0  0  0
  1  2  1  0
  2  3  2  0
  3  4  1  0
  4  5  2  0
  5  6  1  0
  6  7  1  0
  7  8  2  0
  8  9  1  0
  9 10  1  0
 10 11  1  0
 11 12  1  0
 12 13  2  0
 12 14  1  0
 14 15  1  0
 15 16  2  0
 16 17  1  0
 17 18  1  0
 17 19  2  0
 19 20  1  0
 20 21  2  0
 21 22  1  0
  9 23  2  0
 23 24  1  0
 24 25  2  0
 25 26  1  0
 26 27  1  0
  5 28  1  0
 28 29  2  0
 29 30  1  0
 29  2  1  0
 27  6  2  0
 26  8  1  0
 21 15  1  0
M  END
$$$$
