
     RDKit          3D

 28 30  0  0  0  0  0  0  0  0999 V2000
   27.1913   18.7257   26.3059 C   0  0  0  0  0  0  0  0  0  0  0  0
   28.6242   19.0476   25.9335 C   0  0  0  0  0  0  0  0  0  0  0  0
   28.7073   20.3847   25.5296 O   0  0  0  0  0  0  0  0  0  0  0  0
   29.3966   20.6966   24.3554 C   0  0  0  0  0  0  0  0  0  0  0  0
   29.2097   19.9291   23.2272 C   0  0  0  0  0  0  0  0  0  0  0  0
   29.9072   20.2532   22.0571 C   0  0  0  0  0  0  0  0  0  0  0  0
   30.7704   21.3196   22.0185 C   0  0  0  0  0  0  0  0  0  0  0  0
   31.5299   21.7053   20.8049 C   0  0  0  0  0  0  0  0  0  0  0  0
   31.1461   21.3734   19.6125 N   0  0  0  0  0  0  0  0  0  0  0  0
   31.8659   21.7430   18.5632 C   0  0  0  0  0  0  0  0  0  0  0  0
   31.6106   21.4755   17.1625 N   0  0  0  0  0  0  0  0  0  0  0  0
   32.6876   21.3227   16.2620 C   0  0  0  0  0  0  0  0  0  0  0  0
   33.8118   21.7397   16.6360 O   0  0  0  0  0  0  0  0  0  0  0  0
   32.5848   20.7150   14.9301 C   0  0  0  0  0  0  0  0  0  0  0  0
   33.4051   19.6866   14.5366 C   0  0  0  0  0  0  0  0  0  0  0  0
   33.3203   19.1104   13.2974 C   0  0  0  0  0  0  0  0  0  0  0  0
   32.3681   19.5946   12.4235 C   0  0  0  0  0  0  0  0  0  0  0  0
   32.2042   19.0589   11.1124 N   0  0  0  0  0  0  0  0  0  0  0  0
   30.8941   18.9823   10.5174 C   0  0  0  0  0  0  0  0  0  0  0  0
   30.6230   18.1190    9.4258 N   0  0  0  0  0  0  0  0  0  0  0  0
   30.0195   19.7264   11.0293 O   0  0  0  0  0  0  0  0  0  0  0  0
   31.5373   20.6278   12.8064 C   0  0  0  0  0  0  0  0  0  0  0  0
   31.6400   21.1904   14.0536 C   0  0  0  0  0  0  0  0  0  0  0  0
   33.1518   22.6033   19.2876 S   0  0  0  0  0  0  0  0  0  0  0  0
   32.6833   22.4359   20.9216 C   0  0  0  0  0  0  0  0  0  0  0  0
   33.3662   22.9557   22.1527 C   0  0  0  0  0  0  0  0  0  0  0  0
   30.9382   22.0677   23.1564 C   0  0  0  0  0  0  0  0  0  0  0  0
   30.2592   21.7711   24.3354 C   0  0  0  0  0  0  0  0  0  0  0  0
  1  2  1  0
  2  3  1  0
  3  4  1  0
  4  5  2  0
  5  6  1  0
  6  7  2  0
  7  8  1  0
  8  9  1  0
  9 10  2  0
 10 11  1  0
 11 12  1  0
 12 13  2  0
 12 14  1  0
 14 15  2  0
 15 16  1  0
 16 17  2  0
 17 18  1  0
 18 19  1  0
 19 20  1  0
 19 21  2  0
 17 22  1  0
 22 23  2  0
 10 24  1  0
 24 25  1  0
 25 26  1  0
  7 27  1  0
 27 28  2  0
 28  4  1  0
 25  8  2  0
 23 14  1  0
M  END
$$$$
